Circuit: *** SPICE deck for cell FF_tb{sch} from library 8bit-CSM

Per .tran options, skipping operating point for transient analysis.
.step t=1.603e-009
.step t=1.6035e-009
.step t=1.604e-009
.step t=1.6045e-009
.step t=1.605e-009
.step t=1.6055e-009
.step t=1.606e-009
.step t=1.6065e-009
.step t=1.607e-009
.step t=1.6075e-009
.step t=1.608e-009
.step t=1.6085e-009
.step t=1.609e-009
.step t=1.6095e-009
.step t=1.61e-009
.step t=1.6105e-009
.step t=1.611e-009
.step t=1.6115e-009
.step t=1.612e-009
.step t=1.6125e-009
.step t=1.613e-009
.step t=1.6135e-009
.step t=1.614e-009
.step t=1.6145e-009
.step t=1.615e-009
.step t=1.6155e-009
.step t=1.616e-009
.step t=1.6165e-009
.step t=1.617e-009
.step t=1.6175e-009
.step t=1.618e-009
.step t=1.6185e-009
.step t=1.619e-009
.step t=1.6195e-009
.step t=1.62e-009
.step t=1.6205e-009
.step t=1.621e-009
.step t=1.6215e-009
.step t=1.622e-009
.step t=1.6225e-009
.step t=1.623e-009
.step t=1.6235e-009
.step t=1.624e-009
.step t=1.6245e-009
.step t=1.625e-009
.step t=1.6255e-009
.step t=1.626e-009
.step t=1.6265e-009
.step t=1.627e-009
.step t=1.6275e-009
.step t=1.628e-009
.step t=1.6285e-009
.step t=1.629e-009
.step t=1.6295e-009
.step t=1.63e-009
.step t=1.6305e-009
.step t=1.631e-009
.step t=1.6315e-009
.step t=1.632e-009
.step t=1.6325e-009
.step t=1.633e-009
.step t=1.6335e-009
.step t=1.634e-009
.step t=1.6345e-009
.step t=1.635e-009
.step t=1.6355e-009
.step t=1.636e-009
.step t=1.6365e-009
.step t=1.637e-009
.step t=1.6375e-009
.step t=1.638e-009
.step t=1.6385e-009
.step t=1.639e-009
.step t=1.6395e-009
.step t=1.64e-009
.step t=1.6405e-009
.step t=1.641e-009
.step t=1.6415e-009
.step t=1.642e-009
.step t=1.6425e-009
.step t=1.643e-009
.step t=1.6435e-009
.step t=1.644e-009
.step t=1.6445e-009
.step t=1.645e-009
.step t=1.6455e-009
.step t=1.646e-009
.step t=1.6465e-009
.step t=1.647e-009
.step t=1.6475e-009
.step t=1.648e-009
.step t=1.6485e-009
.step t=1.649e-009
.step t=1.6495e-009
.step t=1.65e-009
.step t=1.6505e-009
.step t=1.651e-009
.step t=1.6515e-009
.step t=1.652e-009
.step t=1.6525e-009
.step t=1.653e-009


Measurement: tdc
  step	tdc	FROM	TO
     1	8.06524e-011	1.598e-009	1.67865e-009
     2	8.01658e-011	1.5985e-009	1.67867e-009
     3	7.96921e-011	1.599e-009	1.67869e-009
     4	7.91988e-011	1.5995e-009	1.6787e-009
     5	7.8703e-011	1.6e-009	1.6787e-009
     6	7.82172e-011	1.6005e-009	1.67872e-009
     7	7.77437e-011	1.601e-009	1.67874e-009
     8	7.72686e-011	1.6015e-009	1.67877e-009
     9	7.67783e-011	1.602e-009	1.67878e-009
    10	7.62891e-011	1.6025e-009	1.67879e-009
    11	7.58062e-011	1.603e-009	1.67881e-009
    12	7.53374e-011	1.6035e-009	1.67884e-009
    13	7.48673e-011	1.604e-009	1.67887e-009
    14	7.43863e-011	1.6045e-009	1.67889e-009
    15	7.38969e-011	1.605e-009	1.6789e-009
    16	7.3421e-011	1.6055e-009	1.67892e-009
    17	7.29536e-011	1.606e-009	1.67895e-009
    18	7.2492e-011	1.6065e-009	1.67899e-009
    19	7.202e-011	1.607e-009	1.67902e-009
    20	7.15359e-011	1.6075e-009	1.67904e-009
    21	7.1065e-011	1.608e-009	1.67906e-009
    22	7.06031e-011	1.6085e-009	1.6791e-009
    23	7.01437e-011	1.609e-009	1.67914e-009
    24	6.96845e-011	1.6095e-009	1.67918e-009
    25	6.92039e-011	1.61e-009	1.6792e-009
    26	6.87371e-011	1.6105e-009	1.67924e-009
    27	6.82816e-011	1.611e-009	1.67928e-009
    28	6.78288e-011	1.6115e-009	1.67933e-009
    29	6.7378e-011	1.612e-009	1.67938e-009
    30	6.69088e-011	1.6125e-009	1.67941e-009
    31	6.64457e-011	1.613e-009	1.67945e-009
    32	6.5996e-011	1.6135e-009	1.6795e-009
    33	6.55478e-011	1.614e-009	1.67955e-009
    34	6.51042e-011	1.6145e-009	1.6796e-009
    35	6.46498e-011	1.615e-009	1.67965e-009
    36	6.41888e-011	1.6155e-009	1.67969e-009
    37	6.37428e-011	1.616e-009	1.67974e-009
    38	6.32983e-011	1.6165e-009	1.6798e-009
    39	6.28608e-011	1.617e-009	1.67986e-009
    40	6.24221e-011	1.6175e-009	1.67992e-009
    41	6.19637e-011	1.618e-009	1.67996e-009
    42	6.1515e-011	1.6185e-009	1.68002e-009
    43	6.10753e-011	1.619e-009	1.68008e-009
    44	6.06406e-011	1.6195e-009	1.68014e-009
    45	6.02065e-011	1.62e-009	1.68021e-009
    46	5.97603e-011	1.6205e-009	1.68026e-009
    47	5.93078e-011	1.621e-009	1.68031e-009
    48	5.88651e-011	1.6215e-009	1.68037e-009
    49	5.84285e-011	1.622e-009	1.68043e-009
    50	5.79938e-011	1.6225e-009	1.68049e-009
    51	5.75559e-011	1.623e-009	1.68056e-009
    52	5.70973e-011	1.6235e-009	1.6806e-009
    53	5.66457e-011	1.624e-009	1.68065e-009
    54	5.6201e-011	1.6245e-009	1.6807e-009
    55	5.57592e-011	1.625e-009	1.68076e-009
    56	5.53157e-011	1.6255e-009	1.68082e-009
    57	5.48571e-011	1.626e-009	1.68086e-009
    58	5.43917e-011	1.6265e-009	1.68089e-009
    59	5.39349e-011	1.627e-009	1.68093e-009
    60	5.34843e-011	1.6275e-009	1.68098e-009
    61	5.3032e-011	1.628e-009	1.68103e-009
    62	5.25739e-011	1.6285e-009	1.68107e-009
    63	5.20948e-011	1.629e-009	1.68109e-009
    64	5.1626e-011	1.6295e-009	1.68113e-009
    65	5.11636e-011	1.63e-009	1.68116e-009
    66	5.07029e-011	1.6305e-009	1.6812e-009
    67	5.02382e-011	1.631e-009	1.68124e-009
    68	4.97482e-011	1.6315e-009	1.68125e-009
    69	4.92651e-011	1.632e-009	1.68127e-009
    70	4.87894e-011	1.6325e-009	1.68129e-009
    71	4.83167e-011	1.633e-009	1.68132e-009
    72	4.78398e-011	1.6335e-009	1.68134e-009
    73	4.73365e-011	1.634e-009	1.68134e-009
    74	4.68373e-011	1.6345e-009	1.68134e-009
    75	4.63462e-011	1.635e-009	1.68135e-009
    76	4.58579e-011	1.6355e-009	1.68136e-009
    77	4.53658e-011	1.636e-009	1.68137e-009
    78	4.48399e-011	1.6365e-009	1.68134e-009
    79	4.43199e-011	1.637e-009	1.68132e-009
    80	4.38073e-011	1.6375e-009	1.68131e-009
    81	4.32957e-011	1.638e-009	1.6813e-009
    82	4.27718e-011	1.6385e-009	1.68127e-009
    83	4.22096e-011	1.639e-009	1.68121e-009
    84	4.16587e-011	1.6395e-009	1.68116e-009
    85	4.11126e-011	1.64e-009	1.68111e-009
    86	4.05639e-011	1.6405e-009	1.68106e-009
    87	3.9969e-011	1.641e-009	1.68097e-009
    88	3.93719e-011	1.6415e-009	1.68087e-009
    89	3.87867e-011	1.642e-009	1.68079e-009
    90	3.8207e-011	1.6425e-009	1.68071e-009
    91	3.75899e-011	1.643e-009	1.68059e-009
    92	3.69688e-011	1.6435e-009	1.68047e-009
    93	3.63736e-011	1.644e-009	1.68037e-009
    94	3.57991e-011	1.6445e-009	1.6803e-009
    95	3.52074e-011	1.645e-009	1.68021e-009
    96	3.46129e-011	1.6455e-009	1.68011e-009
    97	3.40448e-011	1.646e-009	1.68004e-009
    98	3.34933e-011	1.6465e-009	1.67999e-009
    99	3.29103e-011	1.647e-009	1.67991e-009
   100	3.22079e-011	1.6475e-009	1.67971e-009
   101	3.14811e-011	1.648e-009	1.67948e-009

Measurement: tcq
  step	tcq	FROM	TO
     1	6.04072e-012	1.67865e-009	1.68469e-009
     2	6.02948e-012	1.67867e-009	1.6847e-009
     3	6.00804e-012	1.67869e-009	1.6847e-009
     4	6.02629e-012	1.6787e-009	1.68473e-009
     5	6.04827e-012	1.6787e-009	1.68475e-009
     6	6.04564e-012	1.67872e-009	1.68476e-009
     7	6.01555e-012	1.67874e-009	1.68476e-009
     8	6.00552e-012	1.67877e-009	1.68477e-009
     9	6.02263e-012	1.67878e-009	1.6848e-009
    10	6.04477e-012	1.67879e-009	1.68483e-009
    11	6.04525e-012	1.67881e-009	1.68485e-009
    12	6.01406e-012	1.67884e-009	1.68485e-009
    13	6.00287e-012	1.67887e-009	1.68487e-009
    14	6.01669e-012	1.67889e-009	1.6849e-009
    15	6.0404e-012	1.6789e-009	1.68494e-009
    16	6.04662e-012	1.67892e-009	1.68497e-009
    17	6.01355e-012	1.67895e-009	1.68497e-009
    18	6.0003e-012	1.67899e-009	1.68499e-009
    19	6.00894e-012	1.67902e-009	1.68503e-009
    20	6.03442e-012	1.67904e-009	1.68507e-009
    21	6.04365e-012	1.67906e-009	1.68511e-009
    22	6.01479e-012	1.6791e-009	1.68512e-009
    23	5.99849e-012	1.67914e-009	1.68514e-009
    24	5.99898e-012	1.67918e-009	1.68518e-009
    25	6.02702e-012	1.6792e-009	1.68523e-009
    26	6.04013e-012	1.67924e-009	1.68528e-009
    27	6.01907e-012	1.67928e-009	1.6853e-009
    28	5.99831e-012	1.67933e-009	1.68533e-009
    29	5.9944e-012	1.67938e-009	1.68537e-009
    30	6.01747e-012	1.67941e-009	1.68543e-009
    31	6.03535e-012	1.67945e-009	1.68548e-009
    32	6.02836e-012	1.6795e-009	1.68552e-009
    33	6.00138e-012	1.67955e-009	1.68555e-009
    34	5.99255e-012	1.6796e-009	1.6856e-009
    35	6.00571e-012	1.67965e-009	1.68566e-009
    36	6.02904e-012	1.67969e-009	1.68572e-009
    37	6.03741e-012	1.67974e-009	1.68578e-009
    38	6.0101e-012	1.6798e-009	1.68581e-009
    39	5.99483e-012	1.67986e-009	1.68586e-009
    40	5.99504e-012	1.67992e-009	1.68592e-009
    41	6.02128e-012	1.67996e-009	1.68599e-009
    42	6.03752e-012	1.68002e-009	1.68605e-009
    43	6.02757e-012	1.68008e-009	1.6861e-009
    44	6.00412e-012	1.68014e-009	1.68614e-009
    45	5.99795e-012	1.68021e-009	1.6862e-009
    46	6.01342e-012	1.68026e-009	1.68627e-009
    47	6.03761e-012	1.68031e-009	1.68635e-009
    48	6.04772e-012	1.68037e-009	1.68641e-009
    49	6.02383e-012	1.68043e-009	1.68645e-009
    50	6.01024e-012	1.68049e-009	1.6865e-009
    51	6.01268e-012	1.68056e-009	1.68657e-009
    52	6.04086e-012	1.6806e-009	1.68664e-009
    53	6.06047e-012	1.68065e-009	1.68671e-009
    54	6.0566e-012	1.6807e-009	1.68676e-009
    55	6.03501e-012	1.68076e-009	1.68679e-009
    56	6.03184e-012	1.68082e-009	1.68685e-009
    57	6.05221e-012	1.68086e-009	1.68691e-009
    58	6.08038e-012	1.68089e-009	1.68697e-009
    59	6.09396e-012	1.68093e-009	1.68703e-009
    60	6.07351e-012	1.68098e-009	1.68706e-009
    61	6.06481e-012	1.68103e-009	1.6871e-009
    62	6.0752e-012	1.68107e-009	1.68715e-009
    63	6.11053e-012	1.68109e-009	1.68721e-009
    64	6.1321e-012	1.68113e-009	1.68726e-009
    65	6.12476e-012	1.68116e-009	1.68729e-009
    66	6.11109e-012	1.6812e-009	1.68731e-009
    67	6.11653e-012	1.68124e-009	1.68735e-009
    68	6.15333e-012	1.68125e-009	1.6874e-009
    69	6.18147e-012	1.68127e-009	1.68745e-009
    70	6.18765e-012	1.68129e-009	1.68748e-009
    71	6.17067e-012	1.68132e-009	1.68749e-009
    72	6.17372e-012	1.68134e-009	1.68751e-009
    73	6.21198e-012	1.68134e-009	1.68755e-009
    74	6.24517e-012	1.68134e-009	1.68758e-009
    75	6.26064e-012	1.68135e-009	1.68761e-009
    76	6.24027e-012	1.68136e-009	1.6876e-009
    77	6.24492e-012	1.68137e-009	1.68761e-009
    78	6.2898e-012	1.68134e-009	1.68763e-009
    79	6.32676e-012	1.68132e-009	1.68765e-009
    80	6.34357e-012	1.68131e-009	1.68765e-009
    81	6.32744e-012	1.6813e-009	1.68762e-009
    82	6.34077e-012	1.68127e-009	1.68761e-009
    83	6.39771e-012	1.68121e-009	1.68761e-009
    84	6.43734e-012	1.68116e-009	1.6876e-009
    85	6.44605e-012	1.68111e-009	1.68756e-009
    86	6.44271e-012	1.68106e-009	1.68751e-009
    87	6.50027e-012	1.68097e-009	1.68747e-009
    88	6.56269e-012	1.68087e-009	1.68743e-009
    89	6.60581e-012	1.68079e-009	1.68739e-009
    90	6.61342e-012	1.68071e-009	1.68732e-009
    91	6.68265e-012	1.68059e-009	1.68727e-009
    92	6.78107e-012	1.68047e-009	1.68725e-009
    93	6.87537e-012	1.68037e-009	1.68725e-009
    94	6.97008e-012	1.6803e-009	1.68727e-009
    95	7.11634e-012	1.68021e-009	1.68732e-009
    96	7.35474e-012	1.68011e-009	1.68747e-009
    97	7.68355e-012	1.68004e-009	1.68773e-009
    98	8.17817e-012	1.67999e-009	1.68817e-009
    99	9.02428e-012	1.67991e-009	1.68893e-009
   100	1.0556e-011	1.67971e-009	1.69026e-009
   101	1.29744e-011	1.67948e-009	1.69246e-009

Measurement: tdq
  step	tdq	FROM	TO
     1	8.66931e-011	1.598e-009	1.68469e-009
     2	8.61953e-011	1.5985e-009	1.6847e-009
     3	8.57002e-011	1.599e-009	1.6847e-009
     4	8.52251e-011	1.5995e-009	1.68473e-009
     5	8.47513e-011	1.6e-009	1.68475e-009
     6	8.42628e-011	1.6005e-009	1.68476e-009
     7	8.37593e-011	1.601e-009	1.68476e-009
     8	8.32742e-011	1.6015e-009	1.68477e-009
     9	8.28009e-011	1.602e-009	1.6848e-009
    10	8.23339e-011	1.6025e-009	1.68483e-009
    11	8.18514e-011	1.603e-009	1.68485e-009
    12	8.13515e-011	1.6035e-009	1.68485e-009
    13	8.08701e-011	1.604e-009	1.68487e-009
    14	8.0403e-011	1.6045e-009	1.6849e-009
    15	7.99373e-011	1.605e-009	1.68494e-009
    16	7.94676e-011	1.6055e-009	1.68497e-009
    17	7.89672e-011	1.606e-009	1.68497e-009
    18	7.84923e-011	1.6065e-009	1.68499e-009
    19	7.8029e-011	1.607e-009	1.68503e-009
    20	7.75703e-011	1.6075e-009	1.68507e-009
    21	7.71086e-011	1.608e-009	1.68511e-009
    22	7.66179e-011	1.6085e-009	1.68512e-009
    23	7.61422e-011	1.609e-009	1.68514e-009
    24	7.56834e-011	1.6095e-009	1.68518e-009
    25	7.52309e-011	1.61e-009	1.68523e-009
    26	7.47773e-011	1.6105e-009	1.68528e-009
    27	7.43007e-011	1.611e-009	1.6853e-009
    28	7.38271e-011	1.6115e-009	1.68533e-009
    29	7.33724e-011	1.612e-009	1.68537e-009
    30	7.29262e-011	1.6125e-009	1.68543e-009
    31	7.24811e-011	1.613e-009	1.68548e-009
    32	7.20244e-011	1.6135e-009	1.68552e-009
    33	7.15492e-011	1.614e-009	1.68555e-009
    34	7.10968e-011	1.6145e-009	1.6856e-009
    35	7.06555e-011	1.615e-009	1.68566e-009
    36	7.02178e-011	1.6155e-009	1.68572e-009
    37	6.97802e-011	1.616e-009	1.68578e-009
    38	6.93084e-011	1.6165e-009	1.68581e-009
    39	6.88556e-011	1.617e-009	1.68586e-009
    40	6.84171e-011	1.6175e-009	1.68592e-009
    41	6.7985e-011	1.618e-009	1.68599e-009
    42	6.75525e-011	1.6185e-009	1.68605e-009
    43	6.71029e-011	1.619e-009	1.6861e-009
    44	6.66447e-011	1.6195e-009	1.68614e-009
    45	6.62044e-011	1.62e-009	1.6862e-009
    46	6.57737e-011	1.6205e-009	1.68627e-009
    47	6.53454e-011	1.621e-009	1.68635e-009
    48	6.49128e-011	1.6215e-009	1.68641e-009
    49	6.44524e-011	1.622e-009	1.68645e-009
    50	6.4004e-011	1.6225e-009	1.6865e-009
    51	6.35685e-011	1.623e-009	1.68657e-009
    52	6.31382e-011	1.6235e-009	1.68664e-009
    53	6.27061e-011	1.624e-009	1.68671e-009
    54	6.22576e-011	1.6245e-009	1.68676e-009
    55	6.17942e-011	1.625e-009	1.68679e-009
    56	6.13475e-011	1.6255e-009	1.68685e-009
    57	6.09093e-011	1.626e-009	1.68691e-009
    58	6.04721e-011	1.6265e-009	1.68697e-009
    59	6.00289e-011	1.627e-009	1.68703e-009
    60	5.95578e-011	1.6275e-009	1.68706e-009
    61	5.90968e-011	1.628e-009	1.6871e-009
    62	5.86491e-011	1.6285e-009	1.68715e-009
    63	5.82053e-011	1.629e-009	1.68721e-009
    64	5.77581e-011	1.6295e-009	1.68726e-009
    65	5.72884e-011	1.63e-009	1.68729e-009
    66	5.6814e-011	1.6305e-009	1.68731e-009
    67	5.63547e-011	1.631e-009	1.68735e-009
    68	5.59016e-011	1.6315e-009	1.6874e-009
    69	5.54466e-011	1.632e-009	1.68745e-009
    70	5.49771e-011	1.6325e-009	1.68748e-009
    71	5.44874e-011	1.633e-009	1.68749e-009
    72	5.40136e-011	1.6335e-009	1.68751e-009
    73	5.35485e-011	1.634e-009	1.68755e-009
    74	5.30825e-011	1.6345e-009	1.68758e-009
    75	5.26069e-011	1.635e-009	1.68761e-009
    76	5.20982e-011	1.6355e-009	1.6876e-009
    77	5.16107e-011	1.636e-009	1.68761e-009
    78	5.11297e-011	1.6365e-009	1.68763e-009
    79	5.06467e-011	1.637e-009	1.68765e-009
    80	5.01509e-011	1.6375e-009	1.68765e-009
    81	4.96231e-011	1.638e-009	1.68762e-009
    82	4.91126e-011	1.6385e-009	1.68761e-009
    83	4.86073e-011	1.639e-009	1.68761e-009
    84	4.80961e-011	1.6395e-009	1.6876e-009
    85	4.75586e-011	1.64e-009	1.68756e-009
    86	4.70066e-011	1.6405e-009	1.68751e-009
    87	4.64693e-011	1.641e-009	1.68747e-009
    88	4.59346e-011	1.6415e-009	1.68743e-009
    89	4.53925e-011	1.642e-009	1.68739e-009
    90	4.48204e-011	1.6425e-009	1.68732e-009
    91	4.42726e-011	1.643e-009	1.68727e-009
    92	4.37498e-011	1.6435e-009	1.68725e-009
    93	4.3249e-011	1.644e-009	1.68725e-009
    94	4.27692e-011	1.6445e-009	1.68727e-009
    95	4.23237e-011	1.645e-009	1.68732e-009
    96	4.19676e-011	1.6455e-009	1.68747e-009
    97	4.17283e-011	1.646e-009	1.68773e-009
    98	4.16715e-011	1.6465e-009	1.68817e-009
    99	4.19345e-011	1.647e-009	1.68893e-009
   100	4.27639e-011	1.6475e-009	1.69026e-009
   101	4.44556e-011	1.648e-009	1.69246e-009


Date: Wed Dec 08 22:22:20 2021
Total elapsed time: 14.350 seconds.

tnom = 27
temp = 27
method = modified trap
totiter = 2421
traniter = 2421
tranpoints = 1123
accept = 1106
rejected = 17
matrix size = 80
fillins = 8
solver = Normal
Matrix Compiler1: 12.02 KB object code size  5.6/2.9/[0.6]
Matrix Compiler2: 9.86 KB object code size  2.3/2.9/[0.5]

