Circuit: *** SPICE deck for cell FF_tb{sch} from library 8bit-CSM

Per .tran options, skipping operating point for transient analysis.
.step t=6.5e-010
.step t=6.505e-010
.step t=6.51e-010
.step t=6.515e-010
.step t=6.52e-010
.step t=6.525e-010
.step t=6.53e-010
.step t=6.535e-010
.step t=6.54e-010
.step t=6.545e-010
.step t=6.55e-010
.step t=6.555e-010
.step t=6.56e-010
.step t=6.565e-010
.step t=6.57e-010
.step t=6.575e-010
.step t=6.58e-010
.step t=6.585e-010
.step t=6.59e-010
.step t=6.595e-010
.step t=6.6e-010
.step t=6.605e-010
.step t=6.61e-010
.step t=6.615e-010
.step t=6.62e-010
.step t=6.625e-010
.step t=6.63e-010
.step t=6.635e-010
.step t=6.64e-010
.step t=6.645e-010
.step t=6.65e-010
.step t=6.655e-010
.step t=6.66e-010
.step t=6.665e-010
.step t=6.67e-010
.step t=6.675e-010
.step t=6.68e-010
.step t=6.685e-010
.step t=6.69e-010
.step t=6.695e-010
.step t=6.7e-010
.step t=6.705e-010
.step t=6.71e-010
.step t=6.715e-010
.step t=6.72e-010
.step t=6.725e-010
.step t=6.73e-010
.step t=6.735e-010
.step t=6.74e-010
.step t=6.745e-010
.step t=6.75e-010
.step t=6.755e-010
.step t=6.76e-010
.step t=6.765e-010
.step t=6.77e-010
.step t=6.775e-010
.step t=6.78e-010
.step t=6.785e-010
.step t=6.79e-010
.step t=6.795e-010
.step t=6.8e-010
.step t=6.805e-010
.step t=6.81e-010
.step t=6.815e-010
.step t=6.82e-010
.step t=6.825e-010
.step t=6.83e-010
.step t=6.835e-010
.step t=6.84e-010
.step t=6.845e-010
.step t=6.85e-010
.step t=6.855e-010
.step t=6.86e-010
.step t=6.865e-010
.step t=6.87e-010
.step t=6.875e-010
.step t=6.88e-010
.step t=6.885e-010
.step t=6.89e-010
.step t=6.895e-010
.step t=6.9e-010
.step t=6.905e-010
.step t=6.91e-010
.step t=6.915e-010
.step t=6.92e-010
.step t=6.925e-010
.step t=6.93e-010
.step t=6.935e-010
.step t=6.94e-010
.step t=6.945e-010
.step t=6.95e-010
.step t=6.955e-010
.step t=6.96e-010
.step t=6.965e-010
.step t=6.97e-010
.step t=6.975e-010
.step t=6.98e-010
.step t=6.985e-010
.step t=6.99e-010
.step t=6.995e-010
.step t=7e-010


Measurement: tdc
  step	tdc	FROM	TO
     1	6.85971e-011	6.45e-010	7.13597e-010
     2	6.80972e-011	6.455e-010	7.13597e-010
     3	6.75923e-011	6.46e-010	7.13592e-010
     4	6.70926e-011	6.465e-010	7.13593e-010
     5	6.65923e-011	6.47e-010	7.13592e-010
     6	6.60974e-011	6.475e-010	7.13597e-010
     7	6.55664e-011	6.48e-010	7.13566e-010
     8	6.5094e-011	6.485e-010	7.13594e-010
     9	6.46008e-011	6.49e-010	7.13601e-010
    10	6.40976e-011	6.495e-010	7.13598e-010
    11	6.35682e-011	6.5e-010	7.13568e-010
    12	6.30928e-011	6.505e-010	7.13593e-010
    13	6.25889e-011	6.51e-010	7.13589e-010
    14	6.20978e-011	6.515e-010	7.13598e-010
    15	6.15694e-011	6.52e-010	7.13569e-010
    16	6.10636e-011	6.525e-010	7.13564e-010
    17	6.06039e-011	6.53e-010	7.13604e-010
    18	6.00981e-011	6.535e-010	7.13598e-010
    19	5.95747e-011	6.54e-010	7.13575e-010
    20	5.90749e-011	6.545e-010	7.13575e-010
    21	5.85934e-011	6.55e-010	7.13593e-010
    22	5.80983e-011	6.555e-010	7.13598e-010
    23	5.75984e-011	6.56e-010	7.13598e-010
    24	5.70761e-011	6.565e-010	7.13576e-010
    25	5.6603e-011	6.57e-010	7.13603e-010
    26	5.60985e-011	6.575e-010	7.13599e-010
    27	5.55986e-011	6.58e-010	7.13599e-010
    28	5.50899e-011	6.585e-010	7.1359e-010
    29	5.45938e-011	6.59e-010	7.13594e-010
    30	5.40988e-011	6.595e-010	7.13599e-010
    31	5.35989e-011	6.6e-010	7.13599e-010
    32	5.31005e-011	6.605e-010	7.13601e-010
    33	5.2596e-011	6.61e-010	7.13596e-010
    34	5.2099e-011	6.615e-010	7.13599e-010
    35	5.15991e-011	6.62e-010	7.13599e-010
    36	5.10945e-011	6.625e-010	7.13594e-010
    37	5.05946e-011	6.63e-010	7.13595e-010
    38	5.00993e-011	6.635e-010	7.13599e-010
    39	4.95993e-011	6.64e-010	7.13599e-010
    40	4.90944e-011	6.645e-010	7.13594e-010
    41	4.85709e-011	6.65e-010	7.13571e-010
    42	4.80995e-011	6.655e-010	7.136e-010
    43	4.75996e-011	6.66e-010	7.136e-010
    44	4.70949e-011	6.665e-010	7.13595e-010
    45	4.65959e-011	6.67e-010	7.13596e-010
    46	4.60946e-011	6.675e-010	7.13595e-010
    47	4.55997e-011	6.68e-010	7.136e-010
    48	4.50766e-011	6.685e-010	7.13577e-010
    49	4.46013e-011	6.69e-010	7.13601e-010
    50	4.41011e-011	6.695e-010	7.13601e-010
    51	4.35997e-011	6.7e-010	7.136e-010
    52	4.30947e-011	6.705e-010	7.13595e-010
    53	4.25892e-011	6.71e-010	7.13589e-010
    54	4.20994e-011	6.715e-010	7.13599e-010
    55	4.15995e-011	6.72e-010	7.13599e-010
    56	4.10771e-011	6.725e-010	7.13577e-010
    57	4.05761e-011	6.73e-010	7.13576e-010
    58	4.01003e-011	6.735e-010	7.136e-010
    59	3.95988e-011	6.74e-010	7.13599e-010
    60	3.9076e-011	6.745e-010	7.13576e-010
    61	3.85913e-011	6.75e-010	7.13591e-010
    62	3.80738e-011	6.755e-010	7.13574e-010
    63	3.75975e-011	6.76e-010	7.13597e-010
    64	3.7097e-011	6.765e-010	7.13597e-010
    65	3.65808e-011	6.77e-010	7.13581e-010
    66	3.60629e-011	6.775e-010	7.13563e-010
    67	3.55954e-011	6.78e-010	7.13595e-010
    68	3.50947e-011	6.785e-010	7.13595e-010
    69	3.46036e-011	6.79e-010	7.13604e-010
    70	3.40886e-011	6.795e-010	7.13589e-010
    71	3.35924e-011	6.8e-010	7.13592e-010
    72	3.30915e-011	6.805e-010	7.13592e-010
    73	3.25874e-011	6.81e-010	7.13587e-010
    74	3.20677e-011	6.815e-010	7.13568e-010
    75	3.15892e-011	6.82e-010	7.13589e-010
    76	3.10886e-011	6.825e-010	7.13589e-010
    77	3.05833e-011	6.83e-010	7.13583e-010
    78	3.00827e-011	6.835e-010	7.13583e-010
    79	2.95886e-011	6.84e-010	7.13589e-010
    80	2.90892e-011	6.845e-010	7.13589e-010
    81	2.85835e-011	6.85e-010	7.13583e-010
    82	2.80979e-011	6.855e-010	7.13598e-010
    83	2.75938e-011	6.86e-010	7.13594e-010
    84	2.70968e-011	6.865e-010	7.13597e-010
    85	2.65955e-011	6.87e-010	7.13595e-010
    86	2.60819e-011	6.875e-010	7.13582e-010
    87	2.5603e-011	6.88e-010	7.13603e-010
    88	2.5112e-011	6.885e-010	7.13612e-010
    89	2.45988e-011	6.89e-010	7.13599e-010
    90	2.41215e-011	6.895e-010	7.13622e-010
    91	2.35972e-011	6.9e-010	7.13597e-010
    92	2.31208e-011	6.905e-010	7.13621e-010
    93	2.26221e-011	6.91e-010	7.13622e-010
    94	2.21221e-011	6.915e-010	7.13622e-010
    95	2.16206e-011	6.92e-010	7.13621e-010
    96	2.11028e-011	6.925e-010	7.13603e-010
    97	2.06086e-011	6.93e-010	7.13609e-010
    98	2.01147e-011	6.935e-010	7.13615e-010
    99	1.95821e-011	6.94e-010	7.13582e-010
   100	1.90649e-011	6.945e-010	7.13565e-010
   101	1.85545e-011	6.95e-010	7.13554e-010

Measurement: tcq
  step	tcq	FROM	TO
     1	1.13928e-012	7.13597e-010	7.14736e-010
     2	1.13953e-012	7.13597e-010	7.14737e-010
     3	1.12474e-012	7.13592e-010	7.14717e-010
     4	1.12428e-012	7.13593e-010	7.14717e-010
     5	1.12544e-012	7.13592e-010	7.14718e-010
     6	1.14056e-012	7.13597e-010	7.14738e-010
     7	1.20294e-012	7.13566e-010	7.14769e-010
     8	1.12295e-012	7.13594e-010	7.14717e-010
     9	1.10193e-012	7.13601e-010	7.14703e-010
    10	1.14159e-012	7.13598e-010	7.14739e-010
    11	1.19103e-012	7.13568e-010	7.14759e-010
    12	1.15801e-012	7.13593e-010	7.14751e-010
    13	1.16976e-012	7.13589e-010	7.14759e-010
    14	1.14265e-012	7.13598e-010	7.1474e-010
    15	1.20413e-012	7.13569e-010	7.14773e-010
    16	1.19912e-012	7.13564e-010	7.14763e-010
    17	1.10892e-012	7.13604e-010	7.14713e-010
    18	1.14372e-012	7.13598e-010	7.14742e-010
    19	1.20136e-012	7.13575e-010	7.14776e-010
    20	1.20126e-012	7.13575e-010	7.14776e-010
    21	1.12904e-012	7.13593e-010	7.14722e-010
    22	1.14481e-012	7.13598e-010	7.14743e-010
    23	1.14509e-012	7.13598e-010	7.14743e-010
    24	1.20111e-012	7.13576e-010	7.14777e-010
    25	1.1084e-012	7.13603e-010	7.14711e-010
    26	1.14594e-012	7.13599e-010	7.14744e-010
    27	1.14622e-012	7.13599e-010	7.14745e-010
    28	1.16469e-012	7.1359e-010	7.14755e-010
    29	1.13195e-012	7.13594e-010	7.14726e-010
    30	1.1471e-012	7.13599e-010	7.14746e-010
    31	1.14739e-012	7.13599e-010	7.14746e-010
    32	1.10634e-012	7.13601e-010	7.14707e-010
    33	1.15317e-012	7.13596e-010	7.14749e-010
    34	1.14831e-012	7.13599e-010	7.14747e-010
    35	1.14862e-012	7.13599e-010	7.14748e-010
    36	1.13313e-012	7.13594e-010	7.14728e-010
    37	1.13319e-012	7.13595e-010	7.14728e-010
    38	1.14959e-012	7.13599e-010	7.14749e-010
    39	1.14992e-012	7.13599e-010	7.14749e-010
    40	1.13555e-012	7.13594e-010	7.1473e-010
    41	1.21258e-012	7.13571e-010	7.14783e-010
    42	1.15097e-012	7.136e-010	7.1475e-010
    43	1.15134e-012	7.136e-010	7.14751e-010
    44	1.13581e-012	7.13595e-010	7.14731e-010
    45	1.13439e-012	7.13596e-010	7.1473e-010
    46	1.13778e-012	7.13595e-010	7.14732e-010
    47	1.15291e-012	7.136e-010	7.14753e-010
    48	1.19263e-012	7.13577e-010	7.14769e-010
    49	1.11283e-012	7.13601e-010	7.14714e-010
    50	1.13252e-012	7.13601e-010	7.14734e-010
    51	1.15472e-012	7.136e-010	7.14754e-010
    52	1.14033e-012	7.13595e-010	7.14735e-010
    53	1.17754e-012	7.13589e-010	7.14767e-010
    54	1.15746e-012	7.13599e-010	7.14757e-010
    55	1.15692e-012	7.13599e-010	7.14756e-010
    56	1.19771e-012	7.13577e-010	7.14775e-010
    57	1.21724e-012	7.13576e-010	7.14793e-010
    58	1.13743e-012	7.136e-010	7.14738e-010
    59	1.15972e-012	7.13599e-010	7.14759e-010
    60	1.21759e-012	7.13576e-010	7.14794e-010
    61	1.18461e-012	7.13591e-010	7.14776e-010
    62	1.2047e-012	7.13574e-010	7.14778e-010
    63	1.16352e-012	7.13597e-010	7.14761e-010
    64	1.1647e-012	7.13597e-010	7.14762e-010
    65	1.21817e-012	7.13581e-010	7.14799e-010
    66	1.22119e-012	7.13563e-010	7.14784e-010
    67	1.16899e-012	7.13595e-010	7.14764e-010
    68	1.17074e-012	7.13595e-010	7.14765e-010
    69	1.13922e-012	7.13604e-010	7.14743e-010
    70	1.15895e-012	7.13589e-010	7.14748e-010
    71	1.17729e-012	7.13592e-010	7.1477e-010
    72	1.18005e-012	7.13592e-010	7.14772e-010
    73	1.16475e-012	7.13587e-010	7.14752e-010
    74	1.24615e-012	7.13568e-010	7.14814e-010
    75	1.19055e-012	7.13589e-010	7.1478e-010
    76	1.19504e-012	7.13589e-010	7.14784e-010
    77	1.18352e-012	7.13583e-010	7.14767e-010
    78	1.19039e-012	7.13583e-010	7.14773e-010
    79	1.21279e-012	7.13589e-010	7.14801e-010
    80	1.22063e-012	7.13589e-010	7.1481e-010
    81	1.26203e-012	7.13583e-010	7.14846e-010
    82	1.20809e-012	7.13598e-010	7.14806e-010
    83	1.25261e-012	7.13594e-010	7.14846e-010
    84	1.26763e-012	7.13597e-010	7.14864e-010
    85	1.26662e-012	7.13595e-010	7.14862e-010
    86	1.3523e-012	7.13582e-010	7.14934e-010
    87	1.3117e-012	7.13603e-010	7.14915e-010
    88	1.3669e-012	7.13612e-010	7.14979e-010
    89	1.49144e-012	7.13599e-010	7.1509e-010
    90	1.44463e-012	7.13622e-010	7.15066e-010
    91	1.62957e-012	7.13597e-010	7.15227e-010
    92	1.59561e-012	7.13621e-010	7.15216e-010
    93	1.74007e-012	7.13622e-010	7.15362e-010
    94	1.93597e-012	7.13622e-010	7.15558e-010
    95	2.21141e-012	7.13621e-010	7.15832e-010
    96	2.68414e-012	7.13603e-010	7.16287e-010
    97	3.19947e-012	7.13609e-010	7.16808e-010
    98	4.3435e-012	7.13615e-010	7.17958e-010
    99	5.94674e-012	7.13582e-010	7.19529e-010
   100	8.68824e-012	7.13565e-010	7.22253e-010
   101	1.46437e-011	7.13554e-010	7.28198e-010

Measurement: tdq
  step	tdq	FROM	TO
     1	6.97364e-011	6.45e-010	7.14736e-010
     2	6.92367e-011	6.455e-010	7.14737e-010
     3	6.87171e-011	6.46e-010	7.14717e-010
     4	6.82168e-011	6.465e-010	7.14717e-010
     5	6.77178e-011	6.47e-010	7.14718e-010
     6	6.7238e-011	6.475e-010	7.14738e-010
     7	6.67693e-011	6.48e-010	7.14769e-010
     8	6.6217e-011	6.485e-010	7.14717e-010
     9	6.57027e-011	6.49e-010	7.14703e-010
    10	6.52392e-011	6.495e-010	7.14739e-010
    11	6.47592e-011	6.5e-010	7.14759e-010
    12	6.42508e-011	6.505e-010	7.14751e-010
    13	6.37587e-011	6.51e-010	7.14759e-010
    14	6.32405e-011	6.515e-010	7.1474e-010
    15	6.27735e-011	6.52e-010	7.14773e-010
    16	6.22628e-011	6.525e-010	7.14763e-010
    17	6.17128e-011	6.53e-010	7.14713e-010
    18	6.12418e-011	6.535e-010	7.14742e-010
    19	6.07761e-011	6.54e-010	7.14776e-010
    20	6.02762e-011	6.545e-010	7.14776e-010
    21	5.97224e-011	6.55e-010	7.14722e-010
    22	5.92431e-011	6.555e-010	7.14743e-010
    23	5.87434e-011	6.56e-010	7.14743e-010
    24	5.82772e-011	6.565e-010	7.14777e-010
    25	5.77114e-011	6.57e-010	7.14711e-010
    26	5.72445e-011	6.575e-010	7.14744e-010
    27	5.67448e-011	6.58e-010	7.14745e-010
    28	5.62546e-011	6.585e-010	7.14755e-010
    29	5.57257e-011	6.59e-010	7.14726e-010
    30	5.52459e-011	6.595e-010	7.14746e-010
    31	5.47463e-011	6.6e-010	7.14746e-010
    32	5.42069e-011	6.605e-010	7.14707e-010
    33	5.37492e-011	6.61e-010	7.14749e-010
    34	5.32474e-011	6.615e-010	7.14747e-010
    35	5.27477e-011	6.62e-010	7.14748e-010
    36	5.22276e-011	6.625e-010	7.14728e-010
    37	5.17278e-011	6.63e-010	7.14728e-010
    38	5.12489e-011	6.635e-010	7.14749e-010
    39	5.07493e-011	6.64e-010	7.14749e-010
    40	5.02299e-011	6.645e-010	7.1473e-010
    41	4.97835e-011	6.65e-010	7.14783e-010
    42	4.92505e-011	6.655e-010	7.1475e-010
    43	4.87509e-011	6.66e-010	7.14751e-010
    44	4.82307e-011	6.665e-010	7.14731e-010
    45	4.77303e-011	6.67e-010	7.1473e-010
    46	4.72324e-011	6.675e-010	7.14732e-010
    47	4.67526e-011	6.68e-010	7.14753e-010
    48	4.62692e-011	6.685e-010	7.14769e-010
    49	4.57142e-011	6.69e-010	7.14714e-010
    50	4.52336e-011	6.695e-010	7.14734e-010
    51	4.47544e-011	6.7e-010	7.14754e-010
    52	4.4235e-011	6.705e-010	7.14735e-010
    53	4.37668e-011	6.71e-010	7.14767e-010
    54	4.32569e-011	6.715e-010	7.14757e-010
    55	4.27564e-011	6.72e-010	7.14756e-010
    56	4.22748e-011	6.725e-010	7.14775e-010
    57	4.17934e-011	6.73e-010	7.14793e-010
    58	4.12378e-011	6.735e-010	7.14738e-010
    59	4.07585e-011	6.74e-010	7.14759e-010
    60	4.02936e-011	6.745e-010	7.14794e-010
    61	3.97759e-011	6.75e-010	7.14776e-010
    62	3.92785e-011	6.755e-010	7.14778e-010
    63	3.8761e-011	6.76e-010	7.14761e-010
    64	3.82617e-011	6.765e-010	7.14762e-010
    65	3.77989e-011	6.77e-010	7.14799e-010
    66	3.72841e-011	6.775e-010	7.14784e-010
    67	3.67643e-011	6.78e-010	7.14764e-010
    68	3.62655e-011	6.785e-010	7.14765e-010
    69	3.57428e-011	6.79e-010	7.14743e-010
    70	3.52475e-011	6.795e-010	7.14748e-010
    71	3.47697e-011	6.8e-010	7.1477e-010
    72	3.42716e-011	6.805e-010	7.14772e-010
    73	3.37521e-011	6.81e-010	7.14752e-010
    74	3.33138e-011	6.815e-010	7.14814e-010
    75	3.27798e-011	6.82e-010	7.1478e-010
    76	3.22837e-011	6.825e-010	7.14784e-010
    77	3.17668e-011	6.83e-010	7.14767e-010
    78	3.1273e-011	6.835e-010	7.14773e-010
    79	3.08013e-011	6.84e-010	7.14801e-010
    80	3.03099e-011	6.845e-010	7.1481e-010
    81	2.98455e-011	6.85e-010	7.14846e-010
    82	2.9306e-011	6.855e-010	7.14806e-010
    83	2.88465e-011	6.86e-010	7.14846e-010
    84	2.83644e-011	6.865e-010	7.14864e-010
    85	2.78621e-011	6.87e-010	7.14862e-010
    86	2.74342e-011	6.875e-010	7.14934e-010
    87	2.69147e-011	6.88e-010	7.14915e-010
    88	2.64789e-011	6.885e-010	7.14979e-010
    89	2.60903e-011	6.89e-010	7.1509e-010
    90	2.55661e-011	6.895e-010	7.15066e-010
    91	2.52267e-011	6.9e-010	7.15227e-010
    92	2.47164e-011	6.905e-010	7.15216e-010
    93	2.43622e-011	6.91e-010	7.15362e-010
    94	2.40581e-011	6.915e-010	7.15558e-010
    95	2.3832e-011	6.92e-010	7.15832e-010
    96	2.37869e-011	6.925e-010	7.16287e-010
    97	2.38081e-011	6.93e-010	7.16808e-010
    98	2.44582e-011	6.935e-010	7.17958e-010
    99	2.55288e-011	6.94e-010	7.19529e-010
   100	2.77532e-011	6.945e-010	7.22253e-010
   101	3.31982e-011	6.95e-010	7.28198e-010


Date: Tue Dec 07 10:34:56 2021
Total elapsed time: 10.707 seconds.

tnom = 27
temp = 27
method = modified trap
totiter = 2438
traniter = 2438
tranpoints = 1107
accept = 1092
rejected = 15
matrix size = 62
fillins = 2
solver = Normal
Matrix Compiler1: 9.12 KB object code size  4.4/2.5/[1.3]
Matrix Compiler2: 7.61 KB object code size  1.8/2.4/[1.1]

