Circuit: *** SPICE deck for cell FF_tb{sch} from library 8bit-CSM

Per .tran options, skipping operating point for transient analysis.
.step t=7.23e-010
.step t=7.235e-010
.step t=7.24e-010
.step t=7.245e-010
.step t=7.25e-010
.step t=7.255e-010
.step t=7.26e-010
.step t=7.265e-010
.step t=7.27e-010
.step t=7.275e-010
.step t=7.28e-010
.step t=7.285e-010
.step t=7.29e-010
.step t=7.295e-010
.step t=7.3e-010
.step t=7.305e-010
.step t=7.31e-010
.step t=7.315e-010
.step t=7.32e-010
.step t=7.325e-010
.step t=7.33e-010
.step t=7.335e-010
.step t=7.34e-010
.step t=7.345e-010
.step t=7.35e-010
.step t=7.355e-010
.step t=7.36e-010
.step t=7.365e-010
.step t=7.37e-010
.step t=7.375e-010
.step t=7.38e-010
.step t=7.385e-010
.step t=7.39e-010
.step t=7.395e-010
.step t=7.4e-010
.step t=7.405e-010
.step t=7.41e-010
.step t=7.415e-010
.step t=7.42e-010
.step t=7.425e-010
.step t=7.43e-010
.step t=7.435e-010
.step t=7.44e-010
.step t=7.445e-010
.step t=7.45e-010
.step t=7.455e-010
.step t=7.46e-010
.step t=7.465e-010
.step t=7.47e-010
.step t=7.475e-010
.step t=7.48e-010
.step t=7.485e-010
.step t=7.49e-010
.step t=7.495e-010
.step t=7.5e-010
.step t=7.505e-010
.step t=7.51e-010
.step t=7.515e-010
.step t=7.52e-010
.step t=7.525e-010
.step t=7.53e-010
.step t=7.535e-010
.step t=7.54e-010
.step t=7.545e-010
.step t=7.55e-010
.step t=7.555e-010
.step t=7.56e-010
.step t=7.565e-010
.step t=7.57e-010
.step t=7.575e-010
.step t=7.58e-010
.step t=7.585e-010
.step t=7.59e-010
.step t=7.595e-010
.step t=7.6e-010
.step t=7.605e-010
.step t=7.61e-010
.step t=7.615e-010
.step t=7.62e-010
.step t=7.625e-010
.step t=7.63e-010
.step t=7.635e-010
.step t=7.64e-010
.step t=7.645e-010
.step t=7.65e-010
.step t=7.655e-010
.step t=7.66e-010
.step t=7.665e-010
.step t=7.67e-010
.step t=7.675e-010
.step t=7.68e-010
.step t=7.685e-010
.step t=7.69e-010
.step t=7.695e-010
.step t=7.7e-010
.step t=7.705e-010
.step t=7.71e-010
.step t=7.715e-010
.step t=7.72e-010
.step t=7.725e-010
.step t=7.73e-010


Measurement: tdc
  step	tdc	FROM	TO
     1	9.49342e-011	6.73e-010	7.67934e-010
     2	9.44424e-011	6.735e-010	7.67942e-010
     3	9.39451e-011	6.74e-010	7.67945e-010
     4	9.344e-011	6.745e-010	7.6794e-010
     5	9.29342e-011	6.75e-010	7.67934e-010
     6	9.24417e-011	6.755e-010	7.67942e-010
     7	9.19473e-011	6.76e-010	7.67947e-010
     8	9.14352e-011	6.765e-010	7.67935e-010
     9	9.0934e-011	6.77e-010	7.67934e-010
    10	9.04409e-011	6.775e-010	7.67941e-010
    11	8.99494e-011	6.78e-010	7.67949e-010
    12	8.94361e-011	6.785e-010	7.67936e-010
    13	8.89339e-011	6.79e-010	7.67934e-010
    14	8.84401e-011	6.795e-010	7.6794e-010
    15	8.79509e-011	6.8e-010	7.67951e-010
    16	8.7437e-011	6.805e-010	7.67937e-010
    17	8.69338e-011	6.81e-010	7.67934e-010
    18	8.6448e-011	6.815e-010	7.67948e-010
    19	8.59498e-011	6.82e-010	7.6795e-010
    20	8.54379e-011	6.825e-010	7.67938e-010
    21	8.49336e-011	6.83e-010	7.67934e-010
    22	8.44383e-011	6.835e-010	7.67938e-010
    23	8.39484e-011	6.84e-010	7.67948e-010
    24	8.34387e-011	6.845e-010	7.67939e-010
    25	8.29333e-011	6.85e-010	7.67933e-010
    26	8.24371e-011	6.855e-010	7.67937e-010
    27	8.19468e-011	6.86e-010	7.67947e-010
    28	8.14393e-011	6.865e-010	7.67939e-010
    29	8.09328e-011	6.87e-010	7.67933e-010
    30	8.04357e-011	6.875e-010	7.67936e-010
    31	7.9936e-011	6.88e-010	7.67936e-010
    32	7.94397e-011	6.885e-010	7.6794e-010
    33	7.89319e-011	6.89e-010	7.67932e-010
    34	7.84339e-011	6.895e-010	7.67934e-010
    35	7.79325e-011	6.9e-010	7.67932e-010
    36	7.74396e-011	6.905e-010	7.6794e-010
    37	7.69305e-011	6.91e-010	7.67931e-010
    38	7.64315e-011	6.915e-010	7.67931e-010
    39	7.59394e-011	6.92e-010	7.67939e-010
    40	7.54388e-011	6.925e-010	7.67939e-010
    41	7.49283e-011	6.93e-010	7.67928e-010
    42	7.44281e-011	6.935e-010	7.67928e-010
    43	7.39352e-011	6.94e-010	7.67935e-010
    44	7.34369e-011	6.945e-010	7.67937e-010
    45	7.29249e-011	6.95e-010	7.67925e-010
    46	7.24236e-011	6.955e-010	7.67924e-010
    47	7.19298e-011	6.96e-010	7.6793e-010
    48	7.14336e-011	6.965e-010	7.67934e-010
    49	7.09201e-011	6.97e-010	7.6792e-010
    50	7.04175e-011	6.975e-010	7.67918e-010
    51	6.99228e-011	6.98e-010	7.67923e-010
    52	6.94288e-011	6.985e-010	7.67929e-010
    53	6.89138e-011	6.99e-010	7.67914e-010
    54	6.84098e-011	6.995e-010	7.6791e-010
    55	6.79141e-011	7e-010	7.67914e-010
    56	6.74223e-011	7.005e-010	7.67922e-010
    57	6.69055e-011	7.01e-010	7.67905e-010
    58	6.64003e-011	7.015e-010	7.679e-010
    59	6.59035e-011	7.02e-010	7.67903e-010
    60	6.54114e-011	7.025e-010	7.67911e-010
    61	6.4895e-011	7.03e-010	7.67895e-010
    62	6.43883e-011	7.035e-010	7.67888e-010
    63	6.38903e-011	7.04e-010	7.6789e-010
    64	6.33973e-011	7.045e-010	7.67897e-010
    65	6.28818e-011	7.05e-010	7.67882e-010
    66	6.23735e-011	7.055e-010	7.67873e-010
    67	6.1874e-011	7.06e-010	7.67874e-010
    68	6.13798e-011	7.065e-010	7.6788e-010
    69	6.08649e-011	7.07e-010	7.67865e-010
    70	6.03545e-011	7.075e-010	7.67855e-010
    71	5.98529e-011	7.08e-010	7.67853e-010
    72	5.93572e-011	7.085e-010	7.67857e-010
    73	5.88406e-011	7.09e-010	7.67841e-010
    74	5.83277e-011	7.095e-010	7.67828e-010
    75	5.78229e-011	7.1e-010	7.67823e-010
    76	5.73118e-011	7.105e-010	7.67812e-010
    77	5.68081e-011	7.11e-010	7.67808e-010
    78	5.62936e-011	7.115e-010	7.67794e-010
    79	5.57884e-011	7.12e-010	7.67788e-010
    80	5.52903e-011	7.125e-010	7.6779e-010
    81	5.4776e-011	7.13e-010	7.67776e-010
    82	5.42639e-011	7.135e-010	7.67764e-010
    83	5.37609e-011	7.14e-010	7.67761e-010
    84	5.32652e-011	7.145e-010	7.67765e-010
    85	5.27608e-011	7.15e-010	7.67761e-010
    86	5.22591e-011	7.155e-010	7.67759e-010
    87	5.17646e-011	7.16e-010	7.67765e-010
    88	5.12727e-011	7.165e-010	7.67773e-010
    89	5.07765e-011	7.17e-010	7.67776e-010
    90	5.0279e-011	7.175e-010	7.67779e-010
    91	4.97651e-011	7.18e-010	7.67765e-010
    92	4.92402e-011	7.185e-010	7.6774e-010
    93	4.87164e-011	7.19e-010	7.67716e-010
    94	4.81917e-011	7.195e-010	7.67692e-010
    95	4.76555e-011	7.2e-010	7.67656e-010
    96	4.71103e-011	7.205e-010	7.6761e-010
    97	4.6554e-011	7.21e-010	7.67554e-010
    98	4.59869e-011	7.215e-010	7.67487e-010
    99	4.54166e-011	7.22e-010	7.67417e-010
   100	4.48307e-011	7.225e-010	7.67331e-010
   101	4.42637e-011	7.23e-010	7.67264e-010

Measurement: tcq
  step	tcq	FROM	TO
     1	1.50098e-013	7.67934e-010	7.68084e-010
     2	1.36188e-013	7.67942e-010	7.68079e-010
     3	1.23069e-013	7.67945e-010	7.68068e-010
     4	1.38764e-013	7.6794e-010	7.68079e-010
     5	1.48566e-013	7.67934e-010	7.68083e-010
     6	1.36601e-013	7.67942e-010	7.68078e-010
     7	1.20584e-013	7.67947e-010	7.68068e-010
     8	1.44421e-013	7.67935e-010	7.6808e-010
     9	1.50118e-013	7.67934e-010	7.68084e-010
    10	1.39534e-013	7.67941e-010	7.6808e-010
    11	1.20967e-013	7.67949e-010	7.6807e-010
    12	1.43237e-013	7.67936e-010	7.68079e-010
    13	1.5087e-013	7.67934e-010	7.68085e-010
    14	1.41762e-013	7.6794e-010	7.68082e-010
    15	1.21382e-013	7.67951e-010	7.68072e-010
    16	1.41931e-013	7.67937e-010	7.68079e-010
    17	1.51497e-013	7.67934e-010	7.68085e-010
    18	1.22582e-013	7.67948e-010	7.68071e-010
    19	1.24346e-013	7.6795e-010	7.68074e-010
    20	1.40497e-013	7.67938e-010	7.68078e-010
    21	1.51981e-013	7.67934e-010	7.68086e-010
    22	1.459e-013	7.67938e-010	7.68084e-010
    23	1.2724e-013	7.67948e-010	7.68076e-010
    24	1.389e-013	7.67939e-010	7.68078e-010
    25	1.52238e-013	7.67933e-010	7.68086e-010
    26	1.477e-013	7.67937e-010	7.68085e-010
    27	1.29991e-013	7.67947e-010	7.68077e-010
    28	1.36926e-013	7.67939e-010	7.68076e-010
    29	1.52139e-013	7.67933e-010	7.68085e-010
    30	1.49209e-013	7.67936e-010	7.68085e-010
    31	1.42872e-013	7.67936e-010	7.68079e-010
    32	1.34606e-013	7.6794e-010	7.68074e-010
    33	1.51728e-013	7.67932e-010	7.68084e-010
    34	1.50469e-013	7.67934e-010	7.68084e-010
    35	1.52108e-013	7.67932e-010	7.68085e-010
    36	1.32038e-013	7.6794e-010	7.68072e-010
    37	1.51016e-013	7.67931e-010	7.68082e-010
    38	1.5143e-013	7.67931e-010	7.68083e-010
    39	1.36845e-013	7.67939e-010	7.68076e-010
    40	1.29175e-013	7.67939e-010	7.68068e-010
    41	1.49988e-013	7.67928e-010	7.68078e-010
    42	1.52054e-013	7.67928e-010	7.6808e-010
    43	1.38572e-013	7.67935e-010	7.68074e-010
    44	1.25998e-013	7.67937e-010	7.68063e-010
    45	1.48605e-013	7.67925e-010	7.68073e-010
    46	1.52312e-013	7.67924e-010	7.68076e-010
    47	1.40016e-013	7.6793e-010	7.6807e-010
    48	1.24017e-013	7.67934e-010	7.68058e-010
    49	1.47097e-013	7.6792e-010	7.68067e-010
    50	1.52384e-013	7.67918e-010	7.6807e-010
    51	1.41356e-013	7.67923e-010	7.68064e-010
    52	1.23123e-013	7.67929e-010	7.68052e-010
    53	1.45589e-013	7.67914e-010	7.68059e-010
    54	1.52556e-013	7.6791e-010	7.68062e-010
    55	1.42598e-013	7.67914e-010	7.68057e-010
    56	1.22232e-013	7.67922e-010	7.68045e-010
    57	1.43982e-013	7.67905e-010	7.68049e-010
    58	1.52232e-013	7.679e-010	7.68053e-010
    59	1.43339e-013	7.67903e-010	7.68047e-010
    60	1.23044e-013	7.67911e-010	7.68034e-010
    61	1.4201e-013	7.67895e-010	7.68037e-010
    62	1.51748e-013	7.67888e-010	7.6804e-010
    63	1.44282e-013	7.6789e-010	7.68035e-010
    64	1.24458e-013	7.67897e-010	7.68022e-010
    65	1.40392e-013	7.67882e-010	7.68022e-010
    66	1.51893e-013	7.67873e-010	7.68025e-010
    67	1.46072e-013	7.67874e-010	7.6802e-010
    68	1.2751e-013	7.6788e-010	7.68007e-010
    69	1.41004e-013	7.67865e-010	7.68006e-010
    70	1.55513e-013	7.67855e-010	7.6801e-010
    71	1.53095e-013	7.67853e-010	7.68006e-010
    72	1.33629e-013	7.67857e-010	7.67991e-010
    73	1.52414e-013	7.67841e-010	7.67993e-010
    74	1.71896e-013	7.67828e-010	7.68e-010
    75	1.70974e-013	7.67823e-010	7.67994e-010
    76	1.86869e-013	7.67812e-010	7.67999e-010
    77	1.82835e-013	7.67808e-010	7.67991e-010
    78	2.09874e-013	7.67794e-010	7.68003e-010
    79	2.21419e-013	7.67788e-010	7.6801e-010
    80	2.21126e-013	7.6779e-010	7.68011e-010
    81	2.42645e-013	7.67776e-010	7.68019e-010
    82	2.83291e-013	7.67764e-010	7.68047e-010
    83	3.1395e-013	7.67761e-010	7.68075e-010
    84	3.39664e-013	7.67765e-010	7.68105e-010
    85	3.81817e-013	7.67761e-010	7.68143e-010
    86	4.58435e-013	7.67759e-010	7.68218e-010
    87	5.44293e-013	7.67765e-010	7.68309e-010
    88	6.55357e-013	7.67773e-010	7.68428e-010
    89	8.01406e-013	7.67776e-010	7.68578e-010
    90	1.00127e-012	7.67779e-010	7.6878e-010
    91	1.27755e-012	7.67765e-010	7.69043e-010
    92	1.63102e-012	7.6774e-010	7.69371e-010
    93	2.08024e-012	7.67716e-010	7.69797e-010
    94	2.67022e-012	7.67692e-010	7.70362e-010
    95	3.47298e-012	7.67656e-010	7.71129e-010
    96	4.59091e-012	7.6761e-010	7.72201e-010
    97	6.20948e-012	7.67554e-010	7.73763e-010
    98	8.51886e-012	7.67487e-010	7.76006e-010
    99	1.15173e-011	7.67417e-010	7.78934e-010
   100	1.54625e-011	7.67331e-010	7.82793e-010
   101	2.14305e-011	7.67264e-010	7.88694e-010

Measurement: tdq
  step	tdq	FROM	TO
     1	9.50843e-011	6.73e-010	7.68084e-010
     2	9.45785e-011	6.735e-010	7.68079e-010
     3	9.40682e-011	6.74e-010	7.68068e-010
     4	9.35788e-011	6.745e-010	7.68079e-010
     5	9.30827e-011	6.75e-010	7.68083e-010
     6	9.25783e-011	6.755e-010	7.68078e-010
     7	9.20679e-011	6.76e-010	7.68068e-010
     8	9.15796e-011	6.765e-010	7.6808e-010
     9	9.10842e-011	6.77e-010	7.68084e-010
    10	9.05804e-011	6.775e-010	7.6808e-010
    11	9.00704e-011	6.78e-010	7.6807e-010
    12	8.95793e-011	6.785e-010	7.68079e-010
    13	8.90848e-011	6.79e-010	7.68085e-010
    14	8.85819e-011	6.795e-010	7.68082e-010
    15	8.80723e-011	6.8e-010	7.68072e-010
    16	8.75789e-011	6.805e-010	7.68079e-010
    17	8.70853e-011	6.81e-010	7.68085e-010
    18	8.65706e-011	6.815e-010	7.68071e-010
    19	8.60741e-011	6.82e-010	7.68074e-010
    20	8.55784e-011	6.825e-010	7.68078e-010
    21	8.50856e-011	6.83e-010	7.68086e-010
    22	8.45842e-011	6.835e-010	7.68084e-010
    23	8.40757e-011	6.84e-010	7.68076e-010
    24	8.35776e-011	6.845e-010	7.68078e-010
    25	8.30855e-011	6.85e-010	7.68086e-010
    26	8.25848e-011	6.855e-010	7.68085e-010
    27	8.20768e-011	6.86e-010	7.68077e-010
    28	8.15763e-011	6.865e-010	7.68076e-010
    29	8.10849e-011	6.87e-010	7.68085e-010
    30	8.05849e-011	6.875e-010	7.68085e-010
    31	8.00789e-011	6.88e-010	7.68079e-010
    32	7.95743e-011	6.885e-010	7.68074e-010
    33	7.90836e-011	6.89e-010	7.68084e-010
    34	7.85844e-011	6.895e-010	7.68084e-010
    35	7.80846e-011	6.9e-010	7.68085e-010
    36	7.75717e-011	6.905e-010	7.68072e-010
    37	7.70816e-011	6.91e-010	7.68082e-010
    38	7.65829e-011	6.915e-010	7.68083e-010
    39	7.60762e-011	6.92e-010	7.68076e-010
    40	7.5568e-011	6.925e-010	7.68068e-010
    41	7.50783e-011	6.93e-010	7.68078e-010
    42	7.45802e-011	6.935e-010	7.6808e-010
    43	7.40738e-011	6.94e-010	7.68074e-010
    44	7.35629e-011	6.945e-010	7.68063e-010
    45	7.30735e-011	6.95e-010	7.68073e-010
    46	7.25759e-011	6.955e-010	7.68076e-010
    47	7.20698e-011	6.96e-010	7.6807e-010
    48	7.15576e-011	6.965e-010	7.68058e-010
    49	7.10672e-011	6.97e-010	7.68067e-010
    50	7.05699e-011	6.975e-010	7.6807e-010
    51	7.00642e-011	6.98e-010	7.68064e-010
    52	6.95519e-011	6.985e-010	7.68052e-010
    53	6.90594e-011	6.99e-010	7.68059e-010
    54	6.85624e-011	6.995e-010	7.68062e-010
    55	6.80567e-011	7e-010	7.68057e-010
    56	6.75445e-011	7.005e-010	7.68045e-010
    57	6.70495e-011	7.01e-010	7.68049e-010
    58	6.65525e-011	7.015e-010	7.68053e-010
    59	6.60468e-011	7.02e-010	7.68047e-010
    60	6.55344e-011	7.025e-010	7.68034e-010
    61	6.50371e-011	7.03e-010	7.68037e-010
    62	6.45401e-011	7.035e-010	7.6804e-010
    63	6.40345e-011	7.04e-010	7.68035e-010
    64	6.35217e-011	7.045e-010	7.68022e-010
    65	6.30222e-011	7.05e-010	7.68022e-010
    66	6.25254e-011	7.055e-010	7.68025e-010
    67	6.20201e-011	7.06e-010	7.6802e-010
    68	6.15074e-011	7.065e-010	7.68007e-010
    69	6.10059e-011	7.07e-010	7.68006e-010
    70	6.05101e-011	7.075e-010	7.6801e-010
    71	6.0006e-011	7.08e-010	7.68006e-010
    72	5.94909e-011	7.085e-010	7.67991e-010
    73	5.8993e-011	7.09e-010	7.67993e-010
    74	5.84996e-011	7.095e-010	7.68e-010
    75	5.79939e-011	7.1e-010	7.67994e-010
    76	5.74987e-011	7.105e-010	7.67999e-010
    77	5.6991e-011	7.11e-010	7.67991e-010
    78	5.65034e-011	7.115e-010	7.68003e-010
    79	5.60098e-011	7.12e-010	7.6801e-010
    80	5.55115e-011	7.125e-010	7.68011e-010
    81	5.50187e-011	7.13e-010	7.68019e-010
    82	5.45472e-011	7.135e-010	7.68047e-010
    83	5.40749e-011	7.14e-010	7.68075e-010
    84	5.36049e-011	7.145e-010	7.68105e-010
    85	5.31426e-011	7.15e-010	7.68143e-010
    86	5.27176e-011	7.155e-010	7.68218e-010
    87	5.23089e-011	7.16e-010	7.68309e-010
    88	5.1928e-011	7.165e-010	7.68428e-010
    89	5.15779e-011	7.17e-010	7.68578e-010
    90	5.12803e-011	7.175e-010	7.6878e-010
    91	5.10426e-011	7.18e-010	7.69043e-010
    92	5.08712e-011	7.185e-010	7.69371e-010
    93	5.07967e-011	7.19e-010	7.69797e-010
    94	5.08619e-011	7.195e-010	7.70362e-010
    95	5.11285e-011	7.2e-010	7.71129e-010
    96	5.17012e-011	7.205e-010	7.72201e-010
    97	5.27635e-011	7.21e-010	7.73763e-010
    98	5.45058e-011	7.215e-010	7.76006e-010
    99	5.69339e-011	7.22e-010	7.78934e-010
   100	6.02932e-011	7.225e-010	7.82793e-010
   101	6.56942e-011	7.23e-010	7.88694e-010


Date: Thu Dec 09 17:42:06 2021
Total elapsed time: 13.992 seconds.

tnom = 27
temp = 27
method = modified trap
totiter = 2394
traniter = 2394
tranpoints = 1089
accept = 1082
rejected = 7
matrix size = 80
fillins = 8
solver = Normal
Matrix Compiler1: 12.02 KB object code size  2.5/1.4/[0.7]
Matrix Compiler2: 9.86 KB object code size  1.0/1.3/[0.5]

