Circuit: *** SPICE deck for cell FF_tb{sch} from library 8bit-CSM

Per .tran options, skipping operating point for transient analysis.
.step t=1.47e-009
.step t=1.4705e-009
.step t=1.471e-009
.step t=1.4715e-009
.step t=1.472e-009
.step t=1.4725e-009
.step t=1.473e-009
.step t=1.4735e-009
.step t=1.474e-009
.step t=1.4745e-009
.step t=1.475e-009
.step t=1.4755e-009
.step t=1.476e-009
.step t=1.4765e-009
.step t=1.477e-009
.step t=1.4775e-009
.step t=1.478e-009
.step t=1.4785e-009
.step t=1.479e-009
.step t=1.4795e-009
.step t=1.48e-009
.step t=1.4805e-009
.step t=1.481e-009
.step t=1.4815e-009
.step t=1.482e-009
.step t=1.4825e-009
.step t=1.483e-009
.step t=1.4835e-009
.step t=1.484e-009
.step t=1.4845e-009
.step t=1.485e-009
.step t=1.4855e-009
.step t=1.486e-009
.step t=1.4865e-009
.step t=1.487e-009
.step t=1.4875e-009
.step t=1.488e-009
.step t=1.4885e-009
.step t=1.489e-009
.step t=1.4895e-009
.step t=1.49e-009
.step t=1.4905e-009
.step t=1.491e-009
.step t=1.4915e-009
.step t=1.492e-009
.step t=1.4925e-009
.step t=1.493e-009
.step t=1.4935e-009
.step t=1.494e-009
.step t=1.4945e-009
.step t=1.495e-009
.step t=1.4955e-009
.step t=1.496e-009
.step t=1.4965e-009
.step t=1.497e-009
.step t=1.4975e-009
.step t=1.498e-009
.step t=1.4985e-009
.step t=1.499e-009
.step t=1.4995e-009
.step t=1.5e-009
.step t=1.5005e-009
.step t=1.501e-009
.step t=1.5015e-009
.step t=1.502e-009
.step t=1.5025e-009
.step t=1.503e-009
.step t=1.5035e-009
.step t=1.504e-009
.step t=1.5045e-009
.step t=1.505e-009
.step t=1.5055e-009
.step t=1.506e-009
.step t=1.5065e-009
.step t=1.507e-009
.step t=1.5075e-009
.step t=1.508e-009
.step t=1.5085e-009
.step t=1.509e-009
.step t=1.5095e-009
.step t=1.51e-009
.step t=1.5105e-009
.step t=1.511e-009
.step t=1.5115e-009
.step t=1.512e-009
.step t=1.5125e-009
.step t=1.513e-009
.step t=1.5135e-009
.step t=1.514e-009
.step t=1.5145e-009
.step t=1.515e-009
.step t=1.5155e-009
.step t=1.516e-009
.step t=1.5165e-009
.step t=1.517e-009
.step t=1.5175e-009
.step t=1.518e-009
.step t=1.5185e-009
.step t=1.519e-009
.step t=1.5195e-009
.step t=1.52e-009


Measurement: tdc
  step	tdc	FROM	TO
     1	6.52076e-011	1.465e-009	1.53021e-009
     2	6.47079e-011	1.4655e-009	1.53021e-009
     3	6.4206e-011	1.466e-009	1.53021e-009
     4	6.37142e-011	1.4665e-009	1.53021e-009
     5	6.32114e-011	1.467e-009	1.53021e-009
     6	6.27092e-011	1.4675e-009	1.53021e-009
     7	6.22095e-011	1.468e-009	1.53021e-009
     8	6.17076e-011	1.4685e-009	1.53021e-009
     9	6.1212e-011	1.469e-009	1.53021e-009
    10	6.07088e-011	1.4695e-009	1.53021e-009
    11	6.02109e-011	1.47e-009	1.53021e-009
    12	5.97113e-011	1.4705e-009	1.53021e-009
    13	5.9196e-011	1.471e-009	1.5302e-009
    14	5.87185e-011	1.4715e-009	1.53022e-009
    15	5.82137e-011	1.472e-009	1.53021e-009
    16	5.77129e-011	1.4725e-009	1.53021e-009
    17	5.72133e-011	1.473e-009	1.53021e-009
    18	5.67117e-011	1.4735e-009	1.53021e-009
    19	5.62198e-011	1.474e-009	1.53022e-009
    20	5.57145e-011	1.4745e-009	1.53021e-009
    21	5.52152e-011	1.475e-009	1.53022e-009
    22	5.47157e-011	1.4755e-009	1.53022e-009
    23	5.4217e-011	1.476e-009	1.53022e-009
    24	5.37033e-011	1.4765e-009	1.5302e-009
    25	5.32172e-011	1.477e-009	1.53022e-009
    26	5.27182e-011	1.4775e-009	1.53022e-009
    27	5.22193e-011	1.478e-009	1.53022e-009
    28	5.17216e-011	1.4785e-009	1.53022e-009
    29	5.12184e-011	1.479e-009	1.53022e-009
    30	5.07203e-011	1.4795e-009	1.53022e-009
    31	5.02228e-011	1.48e-009	1.53022e-009
    32	4.97236e-011	1.4805e-009	1.53022e-009
    33	4.92049e-011	1.481e-009	1.5302e-009
    34	4.87237e-011	1.4815e-009	1.53022e-009
    35	4.82253e-011	1.482e-009	1.53023e-009
    36	4.77287e-011	1.4825e-009	1.53023e-009
    37	4.723e-011	1.483e-009	1.53023e-009
    38	4.6741e-011	1.4835e-009	1.53024e-009
    39	4.62315e-011	1.484e-009	1.53023e-009
    40	4.57356e-011	1.4845e-009	1.53024e-009
    41	4.5238e-011	1.485e-009	1.53024e-009
    42	4.47387e-011	1.4855e-009	1.53024e-009
    43	4.42512e-011	1.486e-009	1.53025e-009
    44	4.37565e-011	1.4865e-009	1.53026e-009
    45	4.32496e-011	1.487e-009	1.53025e-009
    46	4.27536e-011	1.4875e-009	1.53025e-009
    47	4.2259e-011	1.488e-009	1.53026e-009
    48	4.17636e-011	1.4885e-009	1.53026e-009
    49	4.12673e-011	1.489e-009	1.53027e-009
    50	4.0774e-011	1.4895e-009	1.53027e-009
    51	4.02807e-011	1.49e-009	1.53028e-009
    52	3.97952e-011	1.4905e-009	1.5303e-009
    53	3.92811e-011	1.491e-009	1.53028e-009
    54	3.8807e-011	1.4915e-009	1.53031e-009
    55	3.83145e-011	1.492e-009	1.53031e-009
    56	3.7825e-011	1.4925e-009	1.53033e-009
    57	3.73375e-011	1.493e-009	1.53034e-009
    58	3.6862e-011	1.4935e-009	1.53036e-009
    59	3.63626e-011	1.494e-009	1.53036e-009
    60	3.58787e-011	1.4945e-009	1.53038e-009
    61	3.5395e-011	1.495e-009	1.5304e-009
    62	3.49129e-011	1.4955e-009	1.53041e-009
    63	3.44318e-011	1.496e-009	1.53043e-009
    64	3.39496e-011	1.4965e-009	1.53045e-009
    65	3.34702e-011	1.497e-009	1.53047e-009
    66	3.29918e-011	1.4975e-009	1.53049e-009
    67	3.25168e-011	1.498e-009	1.53052e-009
    68	3.20307e-011	1.4985e-009	1.53053e-009
    69	3.15662e-011	1.499e-009	1.53057e-009
    70	3.10905e-011	1.4995e-009	1.53059e-009
    71	3.06201e-011	1.5e-009	1.53062e-009
    72	3.01335e-011	1.5005e-009	1.53063e-009
    73	2.96739e-011	1.501e-009	1.53067e-009
    74	2.92011e-011	1.5015e-009	1.5307e-009
    75	2.87441e-011	1.502e-009	1.53074e-009
    76	2.8267e-011	1.5025e-009	1.53077e-009
    77	2.7783e-011	1.503e-009	1.53078e-009
    78	2.7331e-011	1.5035e-009	1.53083e-009
    79	2.6859e-011	1.504e-009	1.53086e-009
    80	2.64045e-011	1.5045e-009	1.5309e-009
    81	2.59476e-011	1.505e-009	1.53095e-009
    82	2.54781e-011	1.5055e-009	1.53098e-009
    83	2.50102e-011	1.506e-009	1.53101e-009
    84	2.4541e-011	1.5065e-009	1.53104e-009
    85	2.40481e-011	1.507e-009	1.53105e-009
    86	2.35997e-011	1.5075e-009	1.5311e-009
    87	2.31201e-011	1.508e-009	1.53112e-009
    88	2.26031e-011	1.5085e-009	1.5311e-009
    89	2.21161e-011	1.509e-009	1.53112e-009
    90	2.15955e-011	1.5095e-009	1.5311e-009
    91	2.10534e-011	1.51e-009	1.53105e-009
    92	2.04858e-011	1.5105e-009	1.53099e-009
    93	1.99459e-011	1.511e-009	1.53095e-009
    94	1.94136e-011	1.5115e-009	1.53091e-009
    95	1.88441e-011	1.512e-009	1.53084e-009
    96	1.83177e-011	1.5125e-009	1.53082e-009
    97	1.77471e-011	1.513e-009	1.53075e-009
    98	1.71874e-011	1.5135e-009	1.53069e-009
    99	1.65927e-011	1.514e-009	1.53059e-009
   100	1.59611e-011	1.5145e-009	1.53046e-009
   101	1.52622e-011	1.515e-009	1.53026e-009

Measurement: tcq
  step	tcq	FROM	TO
     1	5.83422e-012	1.53021e-009	1.53604e-009
     2	5.83445e-012	1.53021e-009	1.53604e-009
     3	5.83465e-012	1.53021e-009	1.53604e-009
     4	5.80554e-012	1.53021e-009	1.53602e-009
     5	5.79862e-012	1.53021e-009	1.53601e-009
     6	5.83536e-012	1.53021e-009	1.53604e-009
     7	5.83559e-012	1.53021e-009	1.53605e-009
     8	5.8358e-012	1.53021e-009	1.53604e-009
     9	5.83608e-012	1.53021e-009	1.53605e-009
    10	5.83627e-012	1.53021e-009	1.53605e-009
    11	5.83651e-012	1.53021e-009	1.53605e-009
    12	5.83675e-012	1.53021e-009	1.53605e-009
    13	5.83819e-012	1.5302e-009	1.53603e-009
    14	5.80221e-012	1.53022e-009	1.53602e-009
    15	5.83749e-012	1.53021e-009	1.53605e-009
    16	5.83771e-012	1.53021e-009	1.53605e-009
    17	5.83795e-012	1.53021e-009	1.53605e-009
    18	5.83819e-012	1.53021e-009	1.53605e-009
    19	5.80533e-012	1.53022e-009	1.53603e-009
    20	5.8387e-012	1.53021e-009	1.53605e-009
    21	5.83896e-012	1.53022e-009	1.53605e-009
    22	5.83922e-012	1.53022e-009	1.53605e-009
    23	5.8395e-012	1.53022e-009	1.53606e-009
    24	5.84113e-012	1.5302e-009	1.53604e-009
    25	5.84005e-012	1.53022e-009	1.53606e-009
    26	5.8403e-012	1.53022e-009	1.53606e-009
    27	5.84063e-012	1.53022e-009	1.53606e-009
    28	5.80881e-012	1.53022e-009	1.53603e-009
    29	5.84116e-012	1.53022e-009	1.53606e-009
    30	5.84148e-012	1.53022e-009	1.53606e-009
    31	5.8421e-012	1.53022e-009	1.53606e-009
    32	5.84214e-012	1.53022e-009	1.53607e-009
    33	5.84355e-012	1.5302e-009	1.53605e-009
    34	5.84276e-012	1.53022e-009	1.53607e-009
    35	5.84311e-012	1.53023e-009	1.53607e-009
    36	5.84369e-012	1.53023e-009	1.53607e-009
    37	5.8439e-012	1.53023e-009	1.53607e-009
    38	5.80274e-012	1.53024e-009	1.53604e-009
    39	5.84465e-012	1.53023e-009	1.53608e-009
    40	5.8451e-012	1.53024e-009	1.53608e-009
    41	5.84556e-012	1.53024e-009	1.53608e-009
    42	5.84601e-012	1.53024e-009	1.53608e-009
    43	5.80883e-012	1.53025e-009	1.53606e-009
    44	5.80512e-012	1.53026e-009	1.53606e-009
    45	5.84746e-012	1.53025e-009	1.5361e-009
    46	5.84806e-012	1.53025e-009	1.5361e-009
    47	5.84873e-012	1.53026e-009	1.53611e-009
    48	5.84938e-012	1.53026e-009	1.53611e-009
    49	5.85007e-012	1.53027e-009	1.53612e-009
    50	5.8508e-012	1.53027e-009	1.53612e-009
    51	5.85175e-012	1.53028e-009	1.53613e-009
    52	5.82306e-012	1.5303e-009	1.53612e-009
    53	5.85041e-012	1.53028e-009	1.53613e-009
    54	5.85456e-012	1.53031e-009	1.53616e-009
    55	5.85574e-012	1.53031e-009	1.53617e-009
    56	5.85693e-012	1.53033e-009	1.53618e-009
    57	5.85873e-012	1.53034e-009	1.5362e-009
    58	5.81901e-012	1.53036e-009	1.53618e-009
    59	5.86146e-012	1.53036e-009	1.53622e-009
    60	5.86411e-012	1.53038e-009	1.53624e-009
    61	5.86696e-012	1.5304e-009	1.53626e-009
    62	5.87139e-012	1.53041e-009	1.53628e-009
    63	5.85263e-012	1.53043e-009	1.53628e-009
    64	5.8689e-012	1.53045e-009	1.53632e-009
    65	5.87083e-012	1.53047e-009	1.53634e-009
    66	5.87223e-012	1.53049e-009	1.53636e-009
    67	5.8832e-012	1.53052e-009	1.5364e-009
    68	5.88404e-012	1.53053e-009	1.53641e-009
    69	5.88325e-012	1.53057e-009	1.53645e-009
    70	5.88465e-012	1.53059e-009	1.53648e-009
    71	5.88711e-012	1.53062e-009	1.53651e-009
    72	5.87378e-012	1.53063e-009	1.53651e-009
    73	5.86193e-012	1.53067e-009	1.53654e-009
    74	5.88456e-012	1.5307e-009	1.53659e-009
    75	5.85155e-012	1.53074e-009	1.5366e-009
    76	5.88381e-012	1.53077e-009	1.53665e-009
    77	5.88915e-012	1.53078e-009	1.53667e-009
    78	5.88658e-012	1.53083e-009	1.53672e-009
    79	5.89056e-012	1.53086e-009	1.53675e-009
    80	5.86718e-012	1.5309e-009	1.53677e-009
    81	5.90229e-012	1.53095e-009	1.53685e-009
    82	5.90559e-012	1.53098e-009	1.53688e-009
    83	5.91563e-012	1.53101e-009	1.53693e-009
    84	5.91079e-012	1.53104e-009	1.53695e-009
    85	5.96727e-012	1.53105e-009	1.53702e-009
    86	5.95322e-012	1.5311e-009	1.53705e-009
    87	5.9777e-012	1.53112e-009	1.5371e-009
    88	6.03575e-012	1.5311e-009	1.53714e-009
    89	6.04347e-012	1.53112e-009	1.53716e-009
    90	6.10399e-012	1.5311e-009	1.5372e-009
    91	6.1554e-012	1.53105e-009	1.53721e-009
    92	6.24756e-012	1.53099e-009	1.53723e-009
    93	6.32357e-012	1.53095e-009	1.53727e-009
    94	6.42069e-012	1.53091e-009	1.53733e-009
    95	6.55878e-012	1.53084e-009	1.5374e-009
    96	6.75737e-012	1.53082e-009	1.53758e-009
    97	7.0455e-012	1.53075e-009	1.53779e-009
    98	7.50155e-012	1.53069e-009	1.53819e-009
    99	8.25728e-012	1.53059e-009	1.53885e-009
   100	9.67543e-012	1.53046e-009	1.54014e-009
   101	1.24629e-011	1.53026e-009	1.54273e-009

Measurement: tdq
  step	tdq	FROM	TO
     1	7.10419e-011	1.465e-009	1.53604e-009
     2	7.05424e-011	1.4655e-009	1.53604e-009
     3	7.00406e-011	1.466e-009	1.53604e-009
     4	6.95197e-011	1.4665e-009	1.53602e-009
     5	6.901e-011	1.467e-009	1.53601e-009
     6	6.85445e-011	1.4675e-009	1.53604e-009
     7	6.80451e-011	1.468e-009	1.53605e-009
     8	6.75434e-011	1.4685e-009	1.53604e-009
     9	6.70481e-011	1.469e-009	1.53605e-009
    10	6.65451e-011	1.4695e-009	1.53605e-009
    11	6.60474e-011	1.47e-009	1.53605e-009
    12	6.5548e-011	1.4705e-009	1.53605e-009
    13	6.50342e-011	1.471e-009	1.53603e-009
    14	6.45207e-011	1.4715e-009	1.53602e-009
    15	6.40511e-011	1.472e-009	1.53605e-009
    16	6.35506e-011	1.4725e-009	1.53605e-009
    17	6.30513e-011	1.473e-009	1.53605e-009
    18	6.25499e-011	1.4735e-009	1.53605e-009
    19	6.20252e-011	1.474e-009	1.53603e-009
    20	6.15532e-011	1.4745e-009	1.53605e-009
    21	6.10542e-011	1.475e-009	1.53605e-009
    22	6.0555e-011	1.4755e-009	1.53605e-009
    23	6.00565e-011	1.476e-009	1.53606e-009
    24	5.95445e-011	1.4765e-009	1.53604e-009
    25	5.90572e-011	1.477e-009	1.53606e-009
    26	5.85585e-011	1.4775e-009	1.53606e-009
    27	5.80599e-011	1.478e-009	1.53606e-009
    28	5.75304e-011	1.4785e-009	1.53603e-009
    29	5.70595e-011	1.479e-009	1.53606e-009
    30	5.65618e-011	1.4795e-009	1.53606e-009
    31	5.60648e-011	1.48e-009	1.53606e-009
    32	5.55657e-011	1.4805e-009	1.53607e-009
    33	5.50484e-011	1.481e-009	1.53605e-009
    34	5.45664e-011	1.4815e-009	1.53607e-009
    35	5.40684e-011	1.482e-009	1.53607e-009
    36	5.35724e-011	1.4825e-009	1.53607e-009
    37	5.30739e-011	1.483e-009	1.53607e-009
    38	5.25438e-011	1.4835e-009	1.53604e-009
    39	5.20762e-011	1.484e-009	1.53608e-009
    40	5.15807e-011	1.4845e-009	1.53608e-009
    41	5.10835e-011	1.485e-009	1.53608e-009
    42	5.05847e-011	1.4855e-009	1.53608e-009
    43	5.006e-011	1.486e-009	1.53606e-009
    44	4.95616e-011	1.4865e-009	1.53606e-009
    45	4.90971e-011	1.487e-009	1.5361e-009
    46	4.86017e-011	1.4875e-009	1.5361e-009
    47	4.81077e-011	1.488e-009	1.53611e-009
    48	4.7613e-011	1.4885e-009	1.53611e-009
    49	4.71173e-011	1.489e-009	1.53612e-009
    50	4.66248e-011	1.4895e-009	1.53612e-009
    51	4.61324e-011	1.49e-009	1.53613e-009
    52	4.56182e-011	1.4905e-009	1.53612e-009
    53	4.51315e-011	1.491e-009	1.53613e-009
    54	4.46615e-011	1.4915e-009	1.53616e-009
    55	4.41702e-011	1.492e-009	1.53617e-009
    56	4.3682e-011	1.4925e-009	1.53618e-009
    57	4.31962e-011	1.493e-009	1.5362e-009
    58	4.26811e-011	1.4935e-009	1.53618e-009
    59	4.2224e-011	1.494e-009	1.53622e-009
    60	4.17428e-011	1.4945e-009	1.53624e-009
    61	4.1262e-011	1.495e-009	1.53626e-009
    62	4.07843e-011	1.4955e-009	1.53628e-009
    63	4.02844e-011	1.496e-009	1.53628e-009
    64	3.98185e-011	1.4965e-009	1.53632e-009
    65	3.9341e-011	1.497e-009	1.53634e-009
    66	3.88641e-011	1.4975e-009	1.53636e-009
    67	3.84e-011	1.498e-009	1.5364e-009
    68	3.79147e-011	1.4985e-009	1.53641e-009
    69	3.74494e-011	1.499e-009	1.53645e-009
    70	3.69752e-011	1.4995e-009	1.53648e-009
    71	3.65073e-011	1.5e-009	1.53651e-009
    72	3.60073e-011	1.5005e-009	1.53651e-009
    73	3.55359e-011	1.501e-009	1.53654e-009
    74	3.50857e-011	1.5015e-009	1.53659e-009
    75	3.45957e-011	1.502e-009	1.5366e-009
    76	3.41508e-011	1.5025e-009	1.53665e-009
    77	3.36722e-011	1.503e-009	1.53667e-009
    78	3.32176e-011	1.5035e-009	1.53672e-009
    79	3.27496e-011	1.504e-009	1.53675e-009
    80	3.22717e-011	1.5045e-009	1.53677e-009
    81	3.18499e-011	1.505e-009	1.53685e-009
    82	3.13837e-011	1.5055e-009	1.53688e-009
    83	3.09258e-011	1.506e-009	1.53693e-009
    84	3.04518e-011	1.5065e-009	1.53695e-009
    85	3.00153e-011	1.507e-009	1.53702e-009
    86	2.95529e-011	1.5075e-009	1.53705e-009
    87	2.90978e-011	1.508e-009	1.5371e-009
    88	2.86388e-011	1.5085e-009	1.53714e-009
    89	2.81596e-011	1.509e-009	1.53716e-009
    90	2.76995e-011	1.5095e-009	1.5372e-009
    91	2.72088e-011	1.51e-009	1.53721e-009
    92	2.67333e-011	1.5105e-009	1.53723e-009
    93	2.62694e-011	1.511e-009	1.53727e-009
    94	2.58343e-011	1.5115e-009	1.53733e-009
    95	2.54029e-011	1.512e-009	1.5374e-009
    96	2.50751e-011	1.5125e-009	1.53758e-009
    97	2.47926e-011	1.513e-009	1.53779e-009
    98	2.46889e-011	1.5135e-009	1.53819e-009
    99	2.485e-011	1.514e-009	1.53885e-009
   100	2.56365e-011	1.5145e-009	1.54014e-009
   101	2.77251e-011	1.515e-009	1.54273e-009


Date: Tue Dec 07 13:08:00 2021
Total elapsed time: 11.039 seconds.

tnom = 27
temp = 27
method = modified trap
totiter = 2406
traniter = 2406
tranpoints = 1127
accept = 1106
rejected = 21
matrix size = 62
fillins = 2
solver = Normal
Matrix Compiler1: 9.12 KB object code size  4.1/2.4/[1.1]
Matrix Compiler2: 7.61 KB object code size  1.8/2.5/[1.0]

