Circuit: *** SPICE deck for cell FF_tb{sch} from library 8bit-CSM

Per .tran options, skipping operating point for transient analysis.
.step t=7.2e-010
.step t=7.205e-010
.step t=7.21e-010
.step t=7.215e-010
.step t=7.22e-010
.step t=7.225e-010
.step t=7.23e-010
.step t=7.235e-010
.step t=7.24e-010
.step t=7.245e-010
.step t=7.25e-010
.step t=7.255e-010
.step t=7.26e-010
.step t=7.265e-010
.step t=7.27e-010
.step t=7.275e-010
.step t=7.28e-010
.step t=7.285e-010
.step t=7.29e-010
.step t=7.295e-010
.step t=7.3e-010
.step t=7.305e-010
.step t=7.31e-010
.step t=7.315e-010
.step t=7.32e-010
.step t=7.325e-010
.step t=7.33e-010
.step t=7.335e-010
.step t=7.34e-010
.step t=7.345e-010
.step t=7.35e-010
.step t=7.355e-010
.step t=7.36e-010
.step t=7.365e-010
.step t=7.37e-010
.step t=7.375e-010
.step t=7.38e-010
.step t=7.385e-010
.step t=7.39e-010
.step t=7.395e-010
.step t=7.4e-010
.step t=7.405e-010
.step t=7.41e-010
.step t=7.415e-010
.step t=7.42e-010
.step t=7.425e-010
.step t=7.43e-010
.step t=7.435e-010
.step t=7.44e-010
.step t=7.445e-010
.step t=7.45e-010
.step t=7.455e-010
.step t=7.46e-010
.step t=7.465e-010
.step t=7.47e-010
.step t=7.475e-010
.step t=7.48e-010
.step t=7.485e-010
.step t=7.49e-010
.step t=7.495e-010
.step t=7.5e-010
.step t=7.505e-010
.step t=7.51e-010
.step t=7.515e-010
.step t=7.52e-010
.step t=7.525e-010
.step t=7.53e-010
.step t=7.535e-010
.step t=7.54e-010
.step t=7.545e-010
.step t=7.55e-010
.step t=7.555e-010
.step t=7.56e-010
.step t=7.565e-010
.step t=7.57e-010
.step t=7.575e-010
.step t=7.58e-010
.step t=7.585e-010
.step t=7.59e-010
.step t=7.595e-010
.step t=7.6e-010
.step t=7.605e-010
.step t=7.61e-010
.step t=7.615e-010
.step t=7.62e-010
.step t=7.625e-010
.step t=7.63e-010
.step t=7.635e-010
.step t=7.64e-010
.step t=7.645e-010
.step t=7.65e-010
.step t=7.655e-010
.step t=7.66e-010
.step t=7.665e-010
.step t=7.67e-010
.step t=7.675e-010
.step t=7.68e-010
.step t=7.685e-010
.step t=7.69e-010
.step t=7.695e-010
.step t=7.7e-010


Measurement: tdc
  step	tdc	FROM	TO
     1	1.09572e-010	6.7e-010	7.79572e-010
     2	1.09076e-010	6.705e-010	7.79576e-010
     3	1.08586e-010	6.71e-010	7.79586e-010
     4	1.08078e-010	6.715e-010	7.79578e-010
     5	1.0757e-010	6.72e-010	7.7957e-010
     6	1.07072e-010	6.725e-010	7.79572e-010
     7	1.06582e-010	6.73e-010	7.79582e-010
     8	1.06076e-010	6.735e-010	7.79576e-010
     9	1.05567e-010	6.74e-010	7.79567e-010
    10	1.05078e-010	6.745e-010	7.79578e-010
    11	1.04576e-010	6.75e-010	7.79576e-010
    12	1.04072e-010	6.755e-010	7.79572e-010
    13	1.03562e-010	6.76e-010	7.79562e-010
    14	1.03061e-010	6.765e-010	7.79561e-010
    15	1.02569e-010	6.77e-010	7.79569e-010
    16	1.02067e-010	6.775e-010	7.79567e-010
    17	1.01554e-010	6.78e-010	7.79554e-010
    18	1.01053e-010	6.785e-010	7.79553e-010
    19	1.00559e-010	6.79e-010	7.79559e-010
    20	1.00058e-010	6.795e-010	7.79558e-010
    21	9.95436e-011	6.8e-010	7.79544e-010
    22	9.90401e-011	6.805e-010	7.7954e-010
    23	9.85444e-011	6.81e-010	7.79544e-010
    24	9.80326e-011	6.815e-010	7.79533e-010
    25	9.75289e-011	6.82e-010	7.79529e-010
    26	9.70235e-011	6.825e-010	7.79523e-010
    27	9.65261e-011	6.83e-010	7.79526e-010
    28	9.60271e-011	6.835e-010	7.79527e-010
    29	9.55089e-011	6.84e-010	7.79509e-010
    30	9.50018e-011	6.845e-010	7.79502e-010
    31	9.45025e-011	6.85e-010	7.79502e-010
    32	9.4003e-011	6.855e-010	7.79503e-010
    33	9.34827e-011	6.86e-010	7.79483e-010
    34	9.29727e-011	6.865e-010	7.79473e-010
    35	9.24711e-011	6.87e-010	7.79471e-010
    36	9.1971e-011	6.875e-010	7.79471e-010
    37	9.1447e-011	6.88e-010	7.79447e-010
    38	9.09359e-011	6.885e-010	7.79436e-010
    39	9.04317e-011	6.89e-010	7.79432e-010
    40	8.99294e-011	6.895e-010	7.79429e-010
    41	8.94198e-011	6.9e-010	7.7942e-010
    42	8.88887e-011	6.905e-010	7.79389e-010
    43	8.83816e-011	6.91e-010	7.79382e-010
    44	8.78763e-011	6.915e-010	7.79376e-010
    45	8.73475e-011	6.92e-010	7.79347e-010
    46	8.68295e-011	6.925e-010	7.79329e-010
    47	8.63193e-011	6.93e-010	7.79319e-010
    48	8.58098e-011	6.935e-010	7.7931e-010
    49	8.52776e-011	6.94e-010	7.79278e-010
    50	8.4756e-011	6.945e-010	7.79256e-010
    51	8.42431e-011	6.95e-010	7.79243e-010
    52	8.37282e-011	6.955e-010	7.79228e-010
    53	8.31933e-011	6.96e-010	7.79193e-010
    54	8.26685e-011	6.965e-010	7.79168e-010
    55	8.21522e-011	6.97e-010	7.79152e-010
    56	8.16308e-011	6.975e-010	7.79131e-010
    57	8.10923e-011	6.98e-010	7.79092e-010
    58	8.05641e-011	6.985e-010	7.79064e-010
    59	8.00444e-011	6.99e-010	7.79044e-010
    60	7.95158e-011	6.995e-010	7.79016e-010
    61	7.89749e-011	7e-010	7.78975e-010
    62	7.84446e-011	7.005e-010	7.78945e-010
    63	7.79215e-011	7.01e-010	7.78921e-010
    64	7.73845e-011	7.015e-010	7.78885e-010
    65	7.68413e-011	7.02e-010	7.78841e-010
    66	7.63085e-011	7.025e-010	7.78808e-010
    67	7.57835e-011	7.03e-010	7.78784e-010
    68	7.52385e-011	7.035e-010	7.78739e-010
    69	7.46945e-011	7.04e-010	7.78695e-010
    70	7.41608e-011	7.045e-010	7.78661e-010
    71	7.36351e-011	7.05e-010	7.78635e-010
    72	7.30834e-011	7.055e-010	7.78583e-010
    73	7.25406e-011	7.06e-010	7.78541e-010
    74	7.20083e-011	7.065e-010	7.78508e-010
    75	7.14808e-011	7.07e-010	7.78481e-010
    76	7.09292e-011	7.075e-010	7.78429e-010
    77	7.03911e-011	7.08e-010	7.78391e-010
    78	6.98692e-011	7.085e-010	7.78369e-010
    79	6.93367e-011	7.09e-010	7.78337e-010
    80	6.87947e-011	7.095e-010	7.78295e-010
    81	6.82744e-011	7.1e-010	7.78274e-010
    82	6.77452e-011	7.105e-010	7.78245e-010
    83	6.72359e-011	7.11e-010	7.78236e-010
    84	6.67117e-011	7.115e-010	7.78212e-010
    85	6.62034e-011	7.12e-010	7.78203e-010
    86	6.57075e-011	7.125e-010	7.78207e-010
    87	6.5209e-011	7.13e-010	7.78209e-010
    88	6.46959e-011	7.135e-010	7.78196e-010
    89	6.41886e-011	7.14e-010	7.78189e-010
    90	6.36819e-011	7.145e-010	7.78182e-010
    91	6.31599e-011	7.15e-010	7.7816e-010
    92	6.26061e-011	7.155e-010	7.78106e-010
    93	6.20417e-011	7.16e-010	7.78042e-010
    94	6.1461e-011	7.165e-010	7.77961e-010
    95	6.08262e-011	7.17e-010	7.77826e-010
    96	6.01539e-011	7.175e-010	7.77654e-010
    97	5.94538e-011	7.18e-010	7.77454e-010
    98	5.86989e-011	7.185e-010	7.77199e-010
    99	5.79269e-011	7.19e-010	7.76927e-010
   100	5.71735e-011	7.195e-010	7.76673e-010
   101	5.64225e-011	7.2e-010	7.76422e-010

Measurement: tcq
  step	tcq	FROM	TO
     1	-4.24013e-012	7.79572e-010	7.75332e-010
     2	-4.24507e-012	7.79576e-010	7.75331e-010
     3	-4.2628e-012	7.79586e-010	7.75324e-010
     4	-4.25169e-012	7.79578e-010	7.75326e-010
     5	-4.24214e-012	7.7957e-010	7.75328e-010
     6	-4.24604e-012	7.79572e-010	7.75326e-010
     7	-4.26305e-012	7.79582e-010	7.75319e-010
     8	-4.25564e-012	7.79576e-010	7.7532e-010
     9	-4.24513e-012	7.79567e-010	7.75322e-010
    10	-4.26341e-012	7.79578e-010	7.75315e-010
    11	-4.26406e-012	7.79576e-010	7.75312e-010
    12	-4.26051e-012	7.79572e-010	7.75312e-010
    13	-4.24908e-012	7.79562e-010	7.75313e-010
    14	-4.25113e-012	7.79561e-010	7.7531e-010
    15	-4.26639e-012	7.79569e-010	7.75302e-010
    16	-4.26644e-012	7.79567e-010	7.753e-010
    17	-4.25426e-012	7.79554e-010	7.753e-010
    18	-4.25542e-012	7.79553e-010	7.75297e-010
    19	-4.27054e-012	7.79559e-010	7.75288e-010
    20	-4.27372e-012	7.79558e-010	7.75284e-010
    21	-4.26087e-012	7.79544e-010	7.75283e-010
    22	-4.2614e-012	7.7954e-010	7.75279e-010
    23	-4.27558e-012	7.79544e-010	7.75269e-010
    24	-4.26624e-012	7.79533e-010	7.75266e-010
    25	-4.26932e-012	7.79529e-010	7.7526e-010
    26	-4.26951e-012	7.79523e-010	7.75254e-010
    27	-4.28351e-012	7.79526e-010	7.75243e-010
    28	-4.2935e-012	7.79527e-010	7.75234e-010
    29	-4.28013e-012	7.79509e-010	7.75229e-010
    30	-4.28072e-012	7.79502e-010	7.75221e-010
    31	-4.29482e-012	7.79502e-010	7.75208e-010
    32	-4.30699e-012	7.79503e-010	7.75196e-010
    33	-4.29398e-012	7.79483e-010	7.75189e-010
    34	-4.29423e-012	7.79473e-010	7.75178e-010
    35	-4.30884e-012	7.79471e-010	7.75162e-010
    36	-4.3236e-012	7.79471e-010	7.75147e-010
    37	-4.30911e-012	7.79447e-010	7.75138e-010
    38	-4.31261e-012	7.79436e-010	7.75123e-010
    39	-4.32817e-012	7.79432e-010	7.75104e-010
    40	-4.34406e-012	7.79429e-010	7.75085e-010
    41	-4.35321e-012	7.7942e-010	7.75067e-010
    42	-4.33526e-012	7.79389e-010	7.75053e-010
    43	-4.35233e-012	7.79382e-010	7.75029e-010
    44	-4.36905e-012	7.79376e-010	7.75007e-010
    45	-4.35911e-012	7.79347e-010	7.74988e-010
    46	-4.3642e-012	7.79329e-010	7.74965e-010
    47	-4.38277e-012	7.79319e-010	7.74937e-010
    48	-4.39946e-012	7.7931e-010	7.7491e-010
    49	-4.39143e-012	7.79278e-010	7.74886e-010
    50	-4.39821e-012	7.79256e-010	7.74858e-010
    51	-4.42059e-012	7.79243e-010	7.74823e-010
    52	-4.43605e-012	7.79228e-010	7.74792e-010
    53	-4.43173e-012	7.79193e-010	7.74762e-010
    54	-4.44157e-012	7.79168e-010	7.74727e-010
    55	-4.46751e-012	7.79152e-010	7.74685e-010
    56	-4.48057e-012	7.79131e-010	7.7465e-010
    57	-4.4785e-012	7.79092e-010	7.74614e-010
    58	-4.49114e-012	7.79064e-010	7.74573e-010
    59	-4.51866e-012	7.79044e-010	7.74526e-010
    60	-4.53088e-012	7.79016e-010	7.74485e-010
    61	-4.53279e-012	7.78975e-010	7.74442e-010
    62	-4.55133e-012	7.78945e-010	7.74393e-010
    63	-4.57979e-012	7.78921e-010	7.74342e-010
    64	-4.58916e-012	7.78885e-010	7.74295e-010
    65	-4.59516e-012	7.78841e-010	7.74246e-010
    66	-4.61818e-012	7.78808e-010	7.7419e-010
    67	-4.64653e-012	7.78784e-010	7.74137e-010
    68	-4.65245e-012	7.78739e-010	7.74086e-010
    69	-4.66284e-012	7.78695e-010	7.74032e-010
    70	-4.68881e-012	7.78661e-010	7.73972e-010
    71	-4.71553e-012	7.78635e-010	7.7392e-010
    72	-4.71654e-012	7.78583e-010	7.73867e-010
    73	-4.72851e-012	7.78541e-010	7.73812e-010
    74	-4.75251e-012	7.78508e-010	7.73756e-010
    75	-4.77327e-012	7.78481e-010	7.73708e-010
    76	-4.76852e-012	7.78429e-010	7.73661e-010
    77	-4.77783e-012	7.78391e-010	7.73613e-010
    78	-4.79681e-012	7.78369e-010	7.73572e-010
    79	-4.79798e-012	7.78337e-010	7.73539e-010
    80	-4.78252e-012	7.78295e-010	7.73512e-010
    81	-4.78042e-012	7.78274e-010	7.73494e-010
    82	-4.75721e-012	7.78245e-010	7.73488e-010
    83	-4.74018e-012	7.78236e-010	7.73496e-010
    84	-4.68663e-012	7.78212e-010	7.73525e-010
    85	-4.6297e-012	7.78203e-010	7.73574e-010
    86	-4.55955e-012	7.78207e-010	7.73648e-010
    87	-4.44998e-012	7.78209e-010	7.73759e-010
    88	-4.29554e-012	7.78196e-010	7.739e-010
    89	-4.1148e-012	7.78189e-010	7.74074e-010
    90	-3.90082e-012	7.78182e-010	7.74281e-010
    91	-3.62888e-012	7.7816e-010	7.74531e-010
    92	-3.27343e-012	7.78106e-010	7.74833e-010
    93	-2.8371e-012	7.78042e-010	7.75205e-010
    94	-2.29834e-012	7.77961e-010	7.75663e-010
    95	-1.58958e-012	7.77826e-010	7.76237e-010
    96	-6.68522e-013	7.77654e-010	7.76985e-010
    97	5.28032e-013	7.77454e-010	7.77982e-010
    98	2.16611e-012	7.77199e-010	7.79365e-010
    99	4.62908e-012	7.76927e-010	7.81556e-010
   100	8.78912e-012	7.76673e-010	7.85463e-010
   101	1.61353e-011	7.76422e-010	7.92558e-010

Measurement: tdq
  step	tdq	FROM	TO
     1	1.05332e-010	6.7e-010	7.75332e-010
     2	1.04831e-010	6.705e-010	7.75331e-010
     3	1.04324e-010	6.71e-010	7.75324e-010
     4	1.03826e-010	6.715e-010	7.75326e-010
     5	1.03328e-010	6.72e-010	7.75328e-010
     6	1.02826e-010	6.725e-010	7.75326e-010
     7	1.02319e-010	6.73e-010	7.75319e-010
     8	1.0182e-010	6.735e-010	7.7532e-010
     9	1.01322e-010	6.74e-010	7.75322e-010
    10	1.00815e-010	6.745e-010	7.75315e-010
    11	1.00312e-010	6.75e-010	7.75312e-010
    12	9.98119e-011	6.755e-010	7.75312e-010
    13	9.93127e-011	6.76e-010	7.75313e-010
    14	9.88103e-011	6.765e-010	7.7531e-010
    15	9.83023e-011	6.77e-010	7.75302e-010
    16	9.78001e-011	6.775e-010	7.753e-010
    17	9.73e-011	6.78e-010	7.753e-010
    18	9.67971e-011	6.785e-010	7.75297e-010
    19	9.62881e-011	6.79e-010	7.75288e-010
    20	9.57839e-011	6.795e-010	7.75284e-010
    21	9.52827e-011	6.8e-010	7.75283e-010
    22	9.47787e-011	6.805e-010	7.75279e-010
    23	9.42688e-011	6.81e-010	7.75269e-010
    24	9.37664e-011	6.815e-010	7.75266e-010
    25	9.32595e-011	6.82e-010	7.7526e-010
    26	9.2754e-011	6.825e-010	7.75254e-010
    27	9.22426e-011	6.83e-010	7.75243e-010
    28	9.17336e-011	6.835e-010	7.75234e-010
    29	9.12288e-011	6.84e-010	7.75229e-010
    30	9.07211e-011	6.845e-010	7.75221e-010
    31	9.02076e-011	6.85e-010	7.75208e-010
    32	8.9696e-011	6.855e-010	7.75196e-010
    33	8.91887e-011	6.86e-010	7.75189e-010
    34	8.86785e-011	6.865e-010	7.75178e-010
    35	8.81622e-011	6.87e-010	7.75162e-010
    36	8.76474e-011	6.875e-010	7.75147e-010
    37	8.71378e-011	6.88e-010	7.75138e-010
    38	8.66233e-011	6.885e-010	7.75123e-010
    39	8.61035e-011	6.89e-010	7.75104e-010
    40	8.55854e-011	6.895e-010	7.75085e-010
    41	8.50666e-011	6.9e-010	7.75067e-010
    42	8.45534e-011	6.905e-010	7.75053e-010
    43	8.40293e-011	6.91e-010	7.75029e-010
    44	8.35072e-011	6.915e-010	7.75007e-010
    45	8.29884e-011	6.92e-010	7.74988e-010
    46	8.24653e-011	6.925e-010	7.74965e-010
    47	8.19365e-011	6.93e-010	7.74937e-010
    48	8.14103e-011	6.935e-010	7.7491e-010
    49	8.08862e-011	6.94e-010	7.74886e-010
    50	8.03578e-011	6.945e-010	7.74858e-010
    51	7.98225e-011	6.95e-010	7.74823e-010
    52	7.92922e-011	6.955e-010	7.74792e-010
    53	7.87615e-011	6.96e-010	7.74762e-010
    54	7.82269e-011	6.965e-010	7.74727e-010
    55	7.76846e-011	6.97e-010	7.74685e-010
    56	7.71503e-011	6.975e-010	7.7465e-010
    57	7.66138e-011	6.98e-010	7.74614e-010
    58	7.6073e-011	6.985e-010	7.74573e-010
    59	7.55258e-011	6.99e-010	7.74526e-010
    60	7.49849e-011	6.995e-010	7.74485e-010
    61	7.44421e-011	7e-010	7.74442e-010
    62	7.38933e-011	7.005e-010	7.74393e-010
    63	7.33417e-011	7.01e-010	7.74342e-010
    64	7.27954e-011	7.015e-010	7.74295e-010
    65	7.22461e-011	7.02e-010	7.74246e-010
    66	7.16903e-011	7.025e-010	7.7419e-010
    67	7.1137e-011	7.03e-010	7.74137e-010
    68	7.05861e-011	7.035e-010	7.74086e-010
    69	7.00317e-011	7.04e-010	7.74032e-010
    70	6.9472e-011	7.045e-010	7.73972e-010
    71	6.89195e-011	7.05e-010	7.7392e-010
    72	6.83669e-011	7.055e-010	7.73867e-010
    73	6.7812e-011	7.06e-010	7.73812e-010
    74	6.72558e-011	7.065e-010	7.73756e-010
    75	6.67076e-011	7.07e-010	7.73708e-010
    76	6.61607e-011	7.075e-010	7.73661e-010
    77	6.56133e-011	7.08e-010	7.73613e-010
    78	6.50724e-011	7.085e-010	7.73572e-010
    79	6.45387e-011	7.09e-010	7.73539e-010
    80	6.40122e-011	7.095e-010	7.73512e-010
    81	6.3494e-011	7.1e-010	7.73494e-010
    82	6.2988e-011	7.105e-010	7.73488e-010
    83	6.24957e-011	7.11e-010	7.73496e-010
    84	6.20251e-011	7.115e-010	7.73525e-010
    85	6.15737e-011	7.12e-010	7.73574e-010
    86	6.11479e-011	7.125e-010	7.73648e-010
    87	6.0759e-011	7.13e-010	7.73759e-010
    88	6.04003e-011	7.135e-010	7.739e-010
    89	6.00738e-011	7.14e-010	7.74074e-010
    90	5.97811e-011	7.145e-010	7.74281e-010
    91	5.9531e-011	7.15e-010	7.74531e-010
    92	5.93327e-011	7.155e-010	7.74833e-010
    93	5.92046e-011	7.16e-010	7.75205e-010
    94	5.91627e-011	7.165e-010	7.75663e-010
    95	5.92366e-011	7.17e-010	7.76237e-010
    96	5.94854e-011	7.175e-010	7.76985e-010
    97	5.99818e-011	7.18e-010	7.77982e-010
    98	6.0865e-011	7.185e-010	7.79365e-010
    99	6.25559e-011	7.19e-010	7.81556e-010
   100	6.59626e-011	7.195e-010	7.85463e-010
   101	7.25578e-011	7.2e-010	7.92558e-010


Date: Wed Dec 08 22:12:12 2021
Total elapsed time: 18.321 seconds.

tnom = 27
temp = 27
method = modified trap
totiter = 2424
traniter = 2424
tranpoints = 1109
accept = 1096
rejected = 13
matrix size = 80
fillins = 8
solver = Normal
Matrix Compiler1: 12.02 KB object code size  4.2/2.4/[1.1]
Matrix Compiler2: 9.86 KB object code size  1.7/2.3/[0.9]

