Circuit: *** SPICE deck for cell FF_tb{sch} from library 8bit-CSM

Per .tran options, skipping operating point for transient analysis.
.step t=6.51e-010
.step t=6.515e-010
.step t=6.52e-010
.step t=6.525e-010
.step t=6.53e-010
.step t=6.535e-010
.step t=6.54e-010
.step t=6.545e-010
.step t=6.55e-010
.step t=6.555e-010
.step t=6.56e-010
.step t=6.565e-010
.step t=6.57e-010
.step t=6.575e-010
.step t=6.58e-010
.step t=6.585e-010
.step t=6.59e-010
.step t=6.595e-010
.step t=6.6e-010
.step t=6.605e-010
.step t=6.61e-010
.step t=6.615e-010
.step t=6.62e-010
.step t=6.625e-010
.step t=6.63e-010
.step t=6.635e-010
.step t=6.64e-010
.step t=6.645e-010
.step t=6.65e-010
.step t=6.655e-010
.step t=6.66e-010
.step t=6.665e-010
.step t=6.67e-010
.step t=6.675e-010
.step t=6.68e-010
.step t=6.685e-010
.step t=6.69e-010
.step t=6.695e-010
.step t=6.7e-010
.step t=6.705e-010
.step t=6.71e-010
.step t=6.715e-010
.step t=6.72e-010
.step t=6.725e-010
.step t=6.73e-010
.step t=6.735e-010
.step t=6.74e-010
.step t=6.745e-010
.step t=6.75e-010
.step t=6.755e-010
.step t=6.76e-010
.step t=6.765e-010
.step t=6.77e-010
.step t=6.775e-010
.step t=6.78e-010
.step t=6.785e-010
.step t=6.79e-010
.step t=6.795e-010
.step t=6.8e-010
.step t=6.805e-010
.step t=6.81e-010
.step t=6.815e-010
.step t=6.82e-010
.step t=6.825e-010
.step t=6.83e-010
.step t=6.835e-010
.step t=6.84e-010
.step t=6.845e-010
.step t=6.85e-010
.step t=6.855e-010
.step t=6.86e-010
.step t=6.865e-010
.step t=6.87e-010
.step t=6.875e-010
.step t=6.88e-010
.step t=6.885e-010
.step t=6.89e-010
.step t=6.895e-010
.step t=6.9e-010
.step t=6.905e-010
.step t=6.91e-010
.step t=6.915e-010
.step t=6.92e-010
.step t=6.925e-010
.step t=6.93e-010
.step t=6.935e-010
.step t=6.94e-010
.step t=6.945e-010
.step t=6.95e-010
.step t=6.955e-010
.step t=6.96e-010
.step t=6.965e-010
.step t=6.97e-010
.step t=6.975e-010
.step t=6.98e-010
.step t=6.985e-010
.step t=6.99e-010
.step t=6.995e-010
.step t=7e-010
.step t=7.005e-010
.step t=7.01e-010


Measurement: tdc
  step	tdc	FROM	TO
     1	7.38518e-011	6.46e-010	7.19852e-010
     2	7.33521e-011	6.465e-010	7.19852e-010
     3	7.28522e-011	6.47e-010	7.19852e-010
     4	7.2344e-011	6.475e-010	7.19844e-010
     5	7.18371e-011	6.48e-010	7.19837e-010
     6	7.13539e-011	6.485e-010	7.19854e-010
     7	7.08421e-011	6.49e-010	7.19842e-010
     8	7.03449e-011	6.495e-010	7.19845e-010
     9	6.98422e-011	6.5e-010	7.19842e-010
    10	6.93412e-011	6.505e-010	7.19841e-010
    11	6.8838e-011	6.51e-010	7.19838e-010
    12	6.83459e-011	6.515e-010	7.19846e-010
    13	6.7836e-011	6.52e-010	7.19836e-010
    14	6.73421e-011	6.525e-010	7.19842e-010
    15	6.68456e-011	6.53e-010	7.19846e-010
    16	6.63468e-011	6.535e-010	7.19847e-010
    17	6.58404e-011	6.54e-010	7.1984e-010
    18	6.53405e-011	6.545e-010	7.1984e-010
    19	6.4856e-011	6.55e-010	7.19856e-010
    20	6.43477e-011	6.555e-010	7.19848e-010
    21	6.38479e-011	6.56e-010	7.19848e-010
    22	6.33423e-011	6.565e-010	7.19842e-010
    23	6.28456e-011	6.57e-010	7.19846e-010
    24	6.23485e-011	6.575e-010	7.19848e-010
    25	6.18488e-011	6.58e-010	7.19849e-010
    26	6.13483e-011	6.585e-010	7.19848e-010
    27	6.08575e-011	6.59e-010	7.19858e-010
    28	6.03492e-011	6.595e-010	7.19849e-010
    29	5.98493e-011	6.6e-010	7.19849e-010
    30	5.9357e-011	6.605e-010	7.19857e-010
    31	5.88509e-011	6.61e-010	7.19851e-010
    32	5.83496e-011	6.615e-010	7.1985e-010
    33	5.78497e-011	6.62e-010	7.1985e-010
    34	5.73583e-011	6.625e-010	7.19858e-010
    35	5.68584e-011	6.63e-010	7.19858e-010
    36	5.63497e-011	6.635e-010	7.1985e-010
    37	5.58496e-011	6.64e-010	7.1985e-010
    38	5.53581e-011	6.645e-010	7.19858e-010
    39	5.48393e-011	6.65e-010	7.19839e-010
    40	5.43492e-011	6.655e-010	7.19849e-010
    41	5.3849e-011	6.66e-010	7.19849e-010
    42	5.33572e-011	6.665e-010	7.19857e-010
    43	5.28575e-011	6.67e-010	7.19857e-010
    44	5.23562e-011	6.675e-010	7.19856e-010
    45	5.18473e-011	6.68e-010	7.19847e-010
    46	5.13455e-011	6.685e-010	7.19845e-010
    47	5.08535e-011	6.69e-010	7.19854e-010
    48	5.03417e-011	6.695e-010	7.19842e-010
    49	4.9844e-011	6.7e-010	7.19844e-010
    50	4.93513e-011	6.705e-010	7.19851e-010
    51	4.88422e-011	6.71e-010	7.19842e-010
    52	4.83388e-011	6.715e-010	7.19839e-010
    53	4.78386e-011	6.72e-010	7.19839e-010
    54	4.73366e-011	6.725e-010	7.19837e-010
    55	4.68286e-011	6.73e-010	7.19829e-010
    56	4.63301e-011	6.735e-010	7.1983e-010
    57	4.58303e-011	6.74e-010	7.1983e-010
    58	4.53215e-011	6.745e-010	7.19821e-010
    59	4.48193e-011	6.75e-010	7.19819e-010
    60	4.43188e-011	6.755e-010	7.19819e-010
    61	4.38183e-011	6.76e-010	7.19818e-010
    62	4.33148e-011	6.765e-010	7.19815e-010
    63	4.28037e-011	6.77e-010	7.19804e-010
    64	4.23041e-011	6.775e-010	7.19804e-010
    65	4.18028e-011	6.78e-010	7.19803e-010
    66	4.12985e-011	6.785e-010	7.19798e-010
    67	4.07964e-011	6.79e-010	7.19796e-010
    68	4.02988e-011	6.795e-010	7.19799e-010
    69	3.97849e-011	6.8e-010	7.19785e-010
    70	3.92804e-011	6.805e-010	7.1978e-010
    71	3.8786e-011	6.81e-010	7.19786e-010
    72	3.82661e-011	6.815e-010	7.19766e-010
    73	3.77685e-011	6.82e-010	7.19768e-010
    74	3.72649e-011	6.825e-010	7.19765e-010
    75	3.67695e-011	6.83e-010	7.19769e-010
    76	3.62673e-011	6.835e-010	7.19767e-010
    77	3.57607e-011	6.84e-010	7.19761e-010
    78	3.52606e-011	6.845e-010	7.19761e-010
    79	3.47547e-011	6.85e-010	7.19755e-010
    80	3.42614e-011	6.855e-010	7.19761e-010
    81	3.37642e-011	6.86e-010	7.19764e-010
    82	3.32677e-011	6.865e-010	7.19768e-010
    83	3.27813e-011	6.87e-010	7.19781e-010
    84	3.22737e-011	6.875e-010	7.19774e-010
    85	3.17827e-011	6.88e-010	7.19783e-010
    86	3.12744e-011	6.885e-010	7.19774e-010
    87	3.07689e-011	6.89e-010	7.19769e-010
    88	3.02833e-011	6.895e-010	7.19783e-010
    89	2.97791e-011	6.9e-010	7.19779e-010
    90	2.92723e-011	6.905e-010	7.19772e-010
    91	2.87651e-011	6.91e-010	7.19765e-010
    92	2.8256e-011	6.915e-010	7.19756e-010
    93	2.77431e-011	6.92e-010	7.19743e-010
    94	2.72103e-011	6.925e-010	7.1971e-010
    95	2.66924e-011	6.93e-010	7.19692e-010
    96	2.61472e-011	6.935e-010	7.19647e-010
    97	2.55825e-011	6.94e-010	7.19582e-010
    98	2.49991e-011	6.945e-010	7.19499e-010
    99	2.43942e-011	6.95e-010	7.19394e-010
   100	2.37728e-011	6.955e-010	7.19273e-010
   101	2.31509e-011	6.96e-010	7.19151e-010

Measurement: tcq
  step	tcq	FROM	TO
     1	-1.49707e-012	7.19852e-010	7.18355e-010
     2	-1.49702e-012	7.19852e-010	7.18355e-010
     3	-1.49678e-012	7.19852e-010	7.18355e-010
     4	-1.4857e-012	7.19844e-010	7.18358e-010
     5	-1.48536e-012	7.19837e-010	7.18352e-010
     6	-1.49681e-012	7.19854e-010	7.18357e-010
     7	-1.49953e-012	7.19842e-010	7.18343e-010
     8	-1.48516e-012	7.19845e-010	7.1836e-010
     9	-1.48053e-012	7.19842e-010	7.18362e-010
    10	-1.51153e-012	7.19841e-010	7.1833e-010
    11	-1.51225e-012	7.19838e-010	7.18326e-010
    12	-1.48466e-012	7.19846e-010	7.18361e-010
    13	-1.48278e-012	7.19836e-010	7.18353e-010
    14	-1.47774e-012	7.19842e-010	7.18364e-010
    15	-1.49417e-012	7.19846e-010	7.18351e-010
    16	-1.48422e-012	7.19847e-010	7.18363e-010
    17	-1.495e-012	7.1984e-010	7.18345e-010
    18	-1.49552e-012	7.1984e-010	7.18345e-010
    19	-1.495e-012	7.19856e-010	7.18361e-010
    20	-1.48384e-012	7.19848e-010	7.18364e-010
    21	-1.48375e-012	7.19848e-010	7.18364e-010
    22	-1.49583e-012	7.19842e-010	7.18346e-010
    23	-1.49749e-012	7.19846e-010	7.18348e-010
    24	-1.48353e-012	7.19848e-010	7.18365e-010
    25	-1.48346e-012	7.19849e-010	7.18365e-010
    26	-1.47895e-012	7.19848e-010	7.18369e-010
    27	-1.49437e-012	7.19858e-010	7.18363e-010
    28	-1.4833e-012	7.19849e-010	7.18366e-010
    29	-1.48326e-012	7.19849e-010	7.18366e-010
    30	-1.50119e-012	7.19857e-010	7.18356e-010
    31	-1.48251e-012	7.19851e-010	7.18368e-010
    32	-1.48317e-012	7.1985e-010	7.18366e-010
    33	-1.48315e-012	7.1985e-010	7.18367e-010
    34	-1.49433e-012	7.19858e-010	7.18364e-010
    35	-1.49437e-012	7.19858e-010	7.18364e-010
    36	-1.48316e-012	7.1985e-010	7.18367e-010
    37	-1.48318e-012	7.1985e-010	7.18366e-010
    38	-1.49427e-012	7.19858e-010	7.18364e-010
    39	-1.48123e-012	7.19839e-010	7.18358e-010
    40	-1.48329e-012	7.19849e-010	7.18366e-010
    41	-1.48336e-012	7.19849e-010	7.18366e-010
    42	-1.49468e-012	7.19857e-010	7.18363e-010
    43	-1.49505e-012	7.19857e-010	7.18362e-010
    44	-1.49473e-012	7.19856e-010	7.18361e-010
    45	-1.48376e-012	7.19847e-010	7.18364e-010
    46	-1.48015e-012	7.19845e-010	7.18365e-010
    47	-1.50189e-012	7.19854e-010	7.18352e-010
    48	-1.50078e-012	7.19842e-010	7.18341e-010
    49	-1.48445e-012	7.19844e-010	7.1836e-010
    50	-1.49587e-012	7.19851e-010	7.18355e-010
    51	-1.48236e-012	7.19842e-010	7.1836e-010
    52	-1.48324e-012	7.19839e-010	7.18356e-010
    53	-1.48556e-012	7.19839e-010	7.18353e-010
    54	-1.48224e-012	7.19837e-010	7.18354e-010
    55	-1.49714e-012	7.19829e-010	7.18331e-010
    56	-1.50376e-012	7.1983e-010	7.18326e-010
    57	-1.4873e-012	7.1983e-010	7.18343e-010
    58	-1.5049e-012	7.19821e-010	7.18317e-010
    59	-1.51429e-012	7.19819e-010	7.18305e-010
    60	-1.48538e-012	7.19819e-010	7.18333e-010
    61	-1.48998e-012	7.19818e-010	7.18328e-010
    62	-1.49086e-012	7.19815e-010	7.18324e-010
    63	-1.5105e-012	7.19804e-010	7.18293e-010
    64	-1.4896e-012	7.19804e-010	7.18314e-010
    65	-1.49407e-012	7.19803e-010	7.18309e-010
    66	-1.49539e-012	7.19798e-010	7.18303e-010
    67	-1.50449e-012	7.19796e-010	7.18292e-010
    68	-1.50999e-012	7.19799e-010	7.18289e-010
    69	-1.50019e-012	7.19785e-010	7.18285e-010
    70	-1.50211e-012	7.1978e-010	7.18278e-010
    71	-1.51611e-012	7.19786e-010	7.1827e-010
    72	-1.52895e-012	7.19766e-010	7.18237e-010
    73	-1.50889e-012	7.19768e-010	7.1826e-010
    74	-1.51145e-012	7.19765e-010	7.18253e-010
    75	-1.52595e-012	7.19769e-010	7.18244e-010
    76	-1.52875e-012	7.19767e-010	7.18239e-010
    77	-1.52001e-012	7.19761e-010	7.18241e-010
    78	-1.52285e-012	7.19761e-010	7.18238e-010
    79	-1.54887e-012	7.19755e-010	7.18206e-010
    80	-1.53453e-012	7.19761e-010	7.18227e-010
    81	-1.53116e-012	7.19764e-010	7.18233e-010
    82	-1.53262e-012	7.19768e-010	7.18235e-010
    83	-1.54472e-012	7.19781e-010	7.18237e-010
    84	-1.52918e-012	7.19774e-010	7.18244e-010
    85	-1.54287e-012	7.19783e-010	7.1824e-010
    86	-1.52276e-012	7.19774e-010	7.18252e-010
    87	-1.53957e-012	7.19769e-010	7.18229e-010
    88	-1.51817e-012	7.19783e-010	7.18265e-010
    89	-1.48874e-012	7.19779e-010	7.1829e-010
    90	-1.45299e-012	7.19772e-010	7.18319e-010
    91	-1.39881e-012	7.19765e-010	7.18366e-010
    92	-1.31755e-012	7.19756e-010	7.18438e-010
    93	-1.19504e-012	7.19743e-010	7.18548e-010
    94	-9.87334e-013	7.1971e-010	7.18723e-010
    95	-7.41587e-013	7.19692e-010	7.18951e-010
    96	-3.22268e-013	7.19647e-010	7.19325e-010
    97	3.28883e-013	7.19582e-010	7.19911e-010
    98	1.27566e-012	7.19499e-010	7.20775e-010
    99	3.04963e-012	7.19394e-010	7.22444e-010
   100	7.56218e-012	7.19273e-010	7.26835e-010
   101	2.97e-011	7.19151e-010	7.48851e-010

Measurement: tdq
  step	tdq	FROM	TO
     1	7.23548e-011	6.46e-010	7.18355e-010
     2	7.18551e-011	6.465e-010	7.18355e-010
     3	7.13554e-011	6.47e-010	7.18355e-010
     4	7.08583e-011	6.475e-010	7.18358e-010
     5	7.03518e-011	6.48e-010	7.18352e-010
     6	6.98571e-011	6.485e-010	7.18357e-010
     7	6.93426e-011	6.49e-010	7.18343e-010
     8	6.88598e-011	6.495e-010	7.1836e-010
     9	6.83617e-011	6.5e-010	7.18362e-010
    10	6.78297e-011	6.505e-010	7.1833e-010
    11	6.73258e-011	6.51e-010	7.18326e-010
    12	6.68612e-011	6.515e-010	7.18361e-010
    13	6.63532e-011	6.52e-010	7.18353e-010
    14	6.58644e-011	6.525e-010	7.18364e-010
    15	6.53514e-011	6.53e-010	7.18351e-010
    16	6.48626e-011	6.535e-010	7.18363e-010
    17	6.43454e-011	6.54e-010	7.18345e-010
    18	6.38449e-011	6.545e-010	7.18345e-010
    19	6.3361e-011	6.55e-010	7.18361e-010
    20	6.28638e-011	6.555e-010	7.18364e-010
    21	6.23641e-011	6.56e-010	7.18364e-010
    22	6.18464e-011	6.565e-010	7.18346e-010
    23	6.13481e-011	6.57e-010	7.18348e-010
    24	6.08649e-011	6.575e-010	7.18365e-010
    25	6.03653e-011	6.58e-010	7.18365e-010
    26	5.98694e-011	6.585e-010	7.18369e-010
    27	5.93631e-011	6.59e-010	7.18363e-010
    28	5.88659e-011	6.595e-010	7.18366e-010
    29	5.8366e-011	6.6e-010	7.18366e-010
    30	5.78558e-011	6.605e-010	7.18356e-010
    31	5.73684e-011	6.61e-010	7.18368e-010
    32	5.68665e-011	6.615e-010	7.18366e-010
    33	5.63665e-011	6.62e-010	7.18367e-010
    34	5.5864e-011	6.625e-010	7.18364e-010
    35	5.5364e-011	6.63e-010	7.18364e-010
    36	5.48665e-011	6.635e-010	7.18367e-010
    37	5.43664e-011	6.64e-010	7.18366e-010
    38	5.38638e-011	6.645e-010	7.18364e-010
    39	5.3358e-011	6.65e-010	7.18358e-010
    40	5.28659e-011	6.655e-010	7.18366e-010
    41	5.23657e-011	6.66e-010	7.18366e-010
    42	5.18625e-011	6.665e-010	7.18363e-010
    43	5.13624e-011	6.67e-010	7.18362e-010
    44	5.08615e-011	6.675e-010	7.18361e-010
    45	5.03635e-011	6.68e-010	7.18364e-010
    46	4.98653e-011	6.685e-010	7.18365e-010
    47	4.93516e-011	6.69e-010	7.18352e-010
    48	4.88409e-011	6.695e-010	7.18341e-010
    49	4.83596e-011	6.7e-010	7.1836e-010
    50	4.78554e-011	6.705e-010	7.18355e-010
    51	4.73599e-011	6.71e-010	7.1836e-010
    52	4.68556e-011	6.715e-010	7.18356e-010
    53	4.6353e-011	6.72e-010	7.18353e-010
    54	4.58544e-011	6.725e-010	7.18354e-010
    55	4.53314e-011	6.73e-010	7.18331e-010
    56	4.48263e-011	6.735e-010	7.18326e-010
    57	4.4343e-011	6.74e-010	7.18343e-010
    58	4.38166e-011	6.745e-010	7.18317e-010
    59	4.3305e-011	6.75e-010	7.18305e-010
    60	4.28334e-011	6.755e-010	7.18333e-010
    61	4.23283e-011	6.76e-010	7.18328e-010
    62	4.18239e-011	6.765e-010	7.18324e-010
    63	4.12932e-011	6.77e-010	7.18293e-010
    64	4.08145e-011	6.775e-010	7.18314e-010
    65	4.03087e-011	6.78e-010	7.18309e-010
    66	3.98031e-011	6.785e-010	7.18303e-010
    67	3.92919e-011	6.79e-010	7.18292e-010
    68	3.87888e-011	6.795e-010	7.18289e-010
    69	3.82847e-011	6.8e-010	7.18285e-010
    70	3.77783e-011	6.805e-010	7.18278e-010
    71	3.72699e-011	6.81e-010	7.1827e-010
    72	3.67371e-011	6.815e-010	7.18237e-010
    73	3.62596e-011	6.82e-010	7.1826e-010
    74	3.57535e-011	6.825e-010	7.18253e-010
    75	3.52435e-011	6.83e-010	7.18244e-010
    76	3.47385e-011	6.835e-010	7.18239e-010
    77	3.42407e-011	6.84e-010	7.18241e-010
    78	3.37377e-011	6.845e-010	7.18238e-010
    79	3.32058e-011	6.85e-010	7.18206e-010
    80	3.27269e-011	6.855e-010	7.18227e-010
    81	3.2233e-011	6.86e-010	7.18233e-010
    82	3.17351e-011	6.865e-010	7.18235e-010
    83	3.12366e-011	6.87e-010	7.18237e-010
    84	3.07445e-011	6.875e-010	7.18244e-010
    85	3.02398e-011	6.88e-010	7.1824e-010
    86	2.97517e-011	6.885e-010	7.18252e-010
    87	2.92293e-011	6.89e-010	7.18229e-010
    88	2.87651e-011	6.895e-010	7.18265e-010
    89	2.82904e-011	6.9e-010	7.1829e-010
    90	2.78193e-011	6.905e-010	7.18319e-010
    91	2.73663e-011	6.91e-010	7.18366e-010
    92	2.69385e-011	6.915e-010	7.18438e-010
    93	2.6548e-011	6.92e-010	7.18548e-010
    94	2.6223e-011	6.925e-010	7.18723e-010
    95	2.59508e-011	6.93e-010	7.18951e-010
    96	2.5825e-011	6.935e-010	7.19325e-010
    97	2.59114e-011	6.94e-010	7.19911e-010
    98	2.62747e-011	6.945e-010	7.20775e-010
    99	2.74438e-011	6.95e-010	7.22444e-010
   100	3.1335e-011	6.955e-010	7.26835e-010
   101	5.28509e-011	6.96e-010	7.48851e-010


Date: Tue Dec 07 13:15:45 2021
Total elapsed time: 11.703 seconds.

tnom = 27
temp = 27
method = modified trap
totiter = 2426
traniter = 2426
tranpoints = 1104
accept = 1094
rejected = 10
matrix size = 62
fillins = 2
solver = Normal
Matrix Compiler1: 9.12 KB object code size  1.4/0.8/[0.4]
Matrix Compiler2: 7.61 KB object code size  0.6/0.8/[0.4]

