Circuit: *** SPICE deck for cell FF_tb{sch} from library 8bit-CSM

Per .tran options, skipping operating point for transient analysis.
.step t=5e-010
.step t=5.01e-010
.step t=5.02e-010
.step t=5.03e-010
.step t=5.04e-010
.step t=5.05e-010
.step t=5.06e-010
.step t=5.07e-010
.step t=5.08e-010
.step t=5.09e-010
.step t=5.1e-010
.step t=5.11e-010
.step t=5.12e-010
.step t=5.13e-010
.step t=5.14e-010
.step t=5.15e-010
.step t=5.16e-010
.step t=5.17e-010
.step t=5.18e-010
.step t=5.19e-010
.step t=5.2e-010
.step t=5.21e-010
.step t=5.22e-010
.step t=5.23e-010
.step t=5.24e-010
.step t=5.25e-010
.step t=5.26e-010
.step t=5.27e-010
.step t=5.28e-010
.step t=5.29e-010
.step t=5.3e-010
.step t=5.31e-010
.step t=5.32e-010
.step t=5.33e-010
.step t=5.34e-010
.step t=5.35e-010
.step t=5.36e-010
.step t=5.37e-010
.step t=5.38e-010
.step t=5.39e-010
.step t=5.4e-010
.step t=5.41e-010
.step t=5.42e-010
.step t=5.43e-010
.step t=5.44e-010
.step t=5.45e-010
.step t=5.46e-010
.step t=5.47e-010
.step t=5.48e-010
.step t=5.49e-010
.step t=5.5e-010
.step t=5.51e-010
.step t=5.52e-010
.step t=5.53e-010
.step t=5.54e-010
.step t=5.55e-010
.step t=5.56e-010
.step t=5.57e-010
.step t=5.58e-010
.step t=5.59e-010
.step t=5.6e-010
.step t=5.61e-010
.step t=5.62e-010
.step t=5.63e-010
.step t=5.64e-010
.step t=5.65e-010
.step t=5.66e-010
.step t=5.67e-010
.step t=5.68e-010
.step t=5.69e-010
.step t=5.7e-010
.step t=5.71e-010
.step t=5.72e-010
.step t=5.73e-010
.step t=5.74e-010
.step t=5.75e-010
.step t=5.76e-010
.step t=5.77e-010
.step t=5.78e-010
.step t=5.79e-010
.step t=5.8e-010
.step t=5.81e-010
.step t=5.82e-010
.step t=5.83e-010
.step t=5.84e-010
.step t=5.85e-010
.step t=5.86e-010
.step t=5.87e-010
.step t=5.88e-010
.step t=5.89e-010
.step t=5.9e-010


Measurement: tdc
  step	tdc	FROM	TO
     1	1e-010	4.5e-010	5.5e-010
     2	9.9e-011	4.51e-010	5.5e-010
     3	9.8e-011	4.52e-010	5.5e-010
     4	9.7e-011	4.53e-010	5.5e-010
     5	9.6e-011	4.54e-010	5.5e-010
     6	9.5e-011	4.55e-010	5.5e-010
     7	9.4e-011	4.56e-010	5.5e-010
     8	9.3e-011	4.57e-010	5.5e-010
     9	9.2e-011	4.58e-010	5.5e-010
    10	9.1e-011	4.59e-010	5.5e-010
    11	9e-011	4.6e-010	5.5e-010
    12	8.9e-011	4.61e-010	5.5e-010
    13	8.8e-011	4.62e-010	5.5e-010
    14	8.7e-011	4.63e-010	5.5e-010
    15	8.6e-011	4.64e-010	5.5e-010
    16	8.5e-011	4.65e-010	5.5e-010
    17	8.4e-011	4.66e-010	5.5e-010
    18	8.3e-011	4.67e-010	5.5e-010
    19	8.2e-011	4.68e-010	5.5e-010
    20	8.1e-011	4.69e-010	5.5e-010
    21	8e-011	4.7e-010	5.5e-010
    22	7.9e-011	4.71e-010	5.5e-010
    23	7.8e-011	4.72e-010	5.5e-010
    24	7.7e-011	4.73e-010	5.5e-010
    25	7.6e-011	4.74e-010	5.5e-010
    26	7.5e-011	4.75e-010	5.5e-010
    27	7.4e-011	4.76e-010	5.5e-010
    28	7.3e-011	4.77e-010	5.5e-010
    29	7.2e-011	4.78e-010	5.5e-010
    30	7.1e-011	4.79e-010	5.5e-010
    31	7e-011	4.8e-010	5.5e-010
    32	6.9e-011	4.81e-010	5.5e-010
    33	6.8e-011	4.82e-010	5.5e-010
    34	6.7e-011	4.83e-010	5.5e-010
    35	6.6e-011	4.84e-010	5.5e-010
    36	6.5e-011	4.85e-010	5.5e-010
    37	6.4e-011	4.86e-010	5.5e-010
    38	6.3e-011	4.87e-010	5.5e-010
    39	6.2e-011	4.88e-010	5.5e-010
    40	6.1e-011	4.89e-010	5.5e-010
    41	6e-011	4.9e-010	5.5e-010
    42	5.9e-011	4.91e-010	5.5e-010
    43	5.8e-011	4.92e-010	5.5e-010
    44	5.7e-011	4.93e-010	5.5e-010
    45	5.6e-011	4.94e-010	5.5e-010
    46	5.5e-011	4.95e-010	5.5e-010
    47	5.4e-011	4.96e-010	5.5e-010
    48	5.3e-011	4.97e-010	5.5e-010
    49	5.2e-011	4.98e-010	5.5e-010
    50	5.1e-011	4.99e-010	5.5e-010
    51	5e-011	5e-010	5.5e-010
    52	4.9e-011	5.01e-010	5.5e-010
    53	4.8e-011	5.02e-010	5.5e-010
    54	4.7e-011	5.03e-010	5.5e-010
    55	4.6e-011	5.04e-010	5.5e-010
    56	4.5e-011	5.05e-010	5.5e-010
    57	4.4e-011	5.06e-010	5.5e-010
    58	4.3e-011	5.07e-010	5.5e-010
    59	4.2e-011	5.08e-010	5.5e-010
    60	4.1e-011	5.09e-010	5.5e-010
    61	4e-011	5.1e-010	5.5e-010
    62	3.9e-011	5.11e-010	5.5e-010
    63	3.8e-011	5.12e-010	5.5e-010
    64	3.7e-011	5.13e-010	5.5e-010
    65	3.6e-011	5.14e-010	5.5e-010
    66	3.5e-011	5.15e-010	5.5e-010
    67	3.4e-011	5.16e-010	5.5e-010
    68	3.3e-011	5.17e-010	5.5e-010
    69	3.2e-011	5.18e-010	5.5e-010
    70	3.1e-011	5.19e-010	5.5e-010
    71	3e-011	5.2e-010	5.5e-010
    72	2.9e-011	5.21e-010	5.5e-010
    73	2.8e-011	5.22e-010	5.5e-010
    74	2.7e-011	5.23e-010	5.5e-010
    75	2.6e-011	5.24e-010	5.5e-010
    76	2.5e-011	5.25e-010	5.5e-010
    77	2.4e-011	5.26e-010	5.5e-010
    78	2.3e-011	5.27e-010	5.5e-010
    79	2.2e-011	5.28e-010	5.5e-010
    80	2.1e-011	5.29e-010	5.5e-010
    81	2e-011	5.3e-010	5.5e-010
    82	1.9e-011	5.31e-010	5.5e-010
    83	1.8e-011	5.32e-010	5.5e-010
    84	1.7e-011	5.33e-010	5.5e-010
    85	1.6e-011	5.34e-010	5.5e-010
    86	1.5e-011	5.35e-010	5.5e-010
    87	1.4e-011	5.36e-010	5.5e-010
    88	1.3e-011	5.37e-010	5.5e-010
    89	1.2e-011	5.38e-010	5.5e-010
    90	1.1e-011	5.39e-010	5.5e-010
    91	1e-011	5.4e-010	5.5e-010

Measurement: tcq
  step	tcq	FROM	TO
     1	2.50978e-011	5.5e-010	5.75098e-010
     2	2.50958e-011	5.5e-010	5.75096e-010
     3	2.51002e-011	5.5e-010	5.751e-010
     4	2.50961e-011	5.5e-010	5.75096e-010
     5	2.50973e-011	5.5e-010	5.75097e-010
     6	2.5099e-011	5.5e-010	5.75099e-010
     7	2.50973e-011	5.5e-010	5.75097e-010
     8	2.50997e-011	5.5e-010	5.751e-010
     9	2.50974e-011	5.5e-010	5.75097e-010
    10	2.51008e-011	5.5e-010	5.75101e-010
    11	2.50979e-011	5.5e-010	5.75098e-010
    12	2.50988e-011	5.5e-010	5.75099e-010
    13	2.50995e-011	5.5e-010	5.751e-010
    14	2.51053e-011	5.5e-010	5.75105e-010
    15	2.51002e-011	5.5e-010	5.751e-010
    16	2.51079e-011	5.5e-010	5.75108e-010
    17	2.51047e-011	5.5e-010	5.75105e-010
    18	2.51115e-011	5.5e-010	5.75112e-010
    19	2.51099e-011	5.5e-010	5.7511e-010
    20	2.51214e-011	5.5e-010	5.75121e-010
    21	2.51257e-011	5.5e-010	5.75126e-010
    22	2.51403e-011	5.5e-010	5.7514e-010
    23	2.51462e-011	5.5e-010	5.75146e-010
    24	2.51612e-011	5.5e-010	5.75161e-010
    25	2.51676e-011	5.5e-010	5.75168e-010
    26	2.51828e-011	5.5e-010	5.75183e-010
    27	2.51896e-011	5.5e-010	5.7519e-010
    28	2.52054e-011	5.5e-010	5.75205e-010
    29	2.52129e-011	5.5e-010	5.75213e-010
    30	2.52297e-011	5.5e-010	5.7523e-010
    31	2.52383e-011	5.5e-010	5.75238e-010
    32	2.52567e-011	5.5e-010	5.75257e-010
    33	2.52674e-011	5.5e-010	5.75267e-010
    34	2.52881e-011	5.5e-010	5.75288e-010
    35	2.53023e-011	5.5e-010	5.75302e-010
    36	2.53273e-011	5.5e-010	5.75327e-010
    37	2.53477e-011	5.5e-010	5.75348e-010
    38	2.53801e-011	5.5e-010	5.7538e-010
    39	2.54107e-011	5.5e-010	5.75411e-010
    40	2.54571e-011	5.5e-010	5.75457e-010
    41	2.55056e-011	5.5e-010	5.75506e-010
    42	2.55772e-011	5.5e-010	5.75577e-010
    43	2.56591e-011	5.5e-010	5.75659e-010
    44	2.57762e-011	5.5e-010	5.75776e-010
    45	2.59204e-011	5.5e-010	5.7592e-010
    46	2.61192e-011	5.5e-010	5.76119e-010
    47	2.63831e-011	5.5e-010	5.76383e-010
    48	2.67307e-011	5.5e-010	5.76731e-010
    49	2.72102e-011	5.5e-010	5.7721e-010
    50	2.78643e-011	5.5e-010	5.77864e-010
    51	2.87725e-011	5.5e-010	5.78772e-010
    52	3.00689e-011	5.5e-010	5.80069e-010
    53	3.20091e-011	5.5e-010	5.82009e-010
    54	3.51934e-011	5.5e-010	5.85193e-010
    55	4.16568e-011	5.5e-010	5.91657e-010
    56	1.0252e-009	5.5e-010	1.5752e-009
    57	1.0252e-009	5.5e-010	1.5752e-009
    58	1.0252e-009	5.5e-010	1.5752e-009
    59	1.0252e-009	5.5e-010	1.5752e-009
    60	1.0252e-009	5.5e-010	1.5752e-009
    61	1.0252e-009	5.5e-010	1.5752e-009
    62	1.0252e-009	5.5e-010	1.5752e-009
    63	1.0252e-009	5.5e-010	1.5752e-009
    64	1.0252e-009	5.5e-010	1.5752e-009
    65	1.0252e-009	5.5e-010	1.5752e-009
    66	1.0252e-009	5.5e-010	1.5752e-009
    67	1.0252e-009	5.5e-010	1.5752e-009
    68	1.0252e-009	5.5e-010	1.5752e-009
    69	1.0252e-009	5.5e-010	1.5752e-009
    70	1.0252e-009	5.5e-010	1.5752e-009
    71	1.0252e-009	5.5e-010	1.5752e-009
    72	1.0252e-009	5.5e-010	1.5752e-009
    73	1.0252e-009	5.5e-010	1.5752e-009
    74	1.0252e-009	5.5e-010	1.5752e-009
    75	1.0252e-009	5.5e-010	1.5752e-009
    76	1.02519e-009	5.5e-010	1.57519e-009
    77	1.0252e-009	5.5e-010	1.5752e-009
    78	1.02519e-009	5.5e-010	1.57519e-009
    79	1.0252e-009	5.5e-010	1.5752e-009
    80	1.02519e-009	5.5e-010	1.57519e-009
    81	1.0252e-009	5.5e-010	1.5752e-009
    82	1.02519e-009	5.5e-010	1.57519e-009
    83	1.0252e-009	5.5e-010	1.5752e-009
    84	1.02519e-009	5.5e-010	1.57519e-009
    85	1.0252e-009	5.5e-010	1.5752e-009
    86	1.02519e-009	5.5e-010	1.57519e-009
    87	1.0252e-009	5.5e-010	1.5752e-009
    88	1.02519e-009	5.5e-010	1.57519e-009
    89	1.0252e-009	5.5e-010	1.5752e-009
    90	1.02519e-009	5.5e-010	1.57519e-009
    91	1.0252e-009	5.5e-010	1.5752e-009

Measurement: tdq
  step	tdq	FROM	TO
     1	1.25098e-010	4.5e-010	5.75098e-010
     2	1.24096e-010	4.51e-010	5.75096e-010
     3	1.231e-010	4.52e-010	5.751e-010
     4	1.22096e-010	4.53e-010	5.75096e-010
     5	1.21097e-010	4.54e-010	5.75097e-010
     6	1.20099e-010	4.55e-010	5.75099e-010
     7	1.19097e-010	4.56e-010	5.75097e-010
     8	1.181e-010	4.57e-010	5.751e-010
     9	1.17097e-010	4.58e-010	5.75097e-010
    10	1.16101e-010	4.59e-010	5.75101e-010
    11	1.15098e-010	4.6e-010	5.75098e-010
    12	1.14099e-010	4.61e-010	5.75099e-010
    13	1.131e-010	4.62e-010	5.751e-010
    14	1.12105e-010	4.63e-010	5.75105e-010
    15	1.111e-010	4.64e-010	5.751e-010
    16	1.10108e-010	4.65e-010	5.75108e-010
    17	1.09105e-010	4.66e-010	5.75105e-010
    18	1.08112e-010	4.67e-010	5.75112e-010
    19	1.0711e-010	4.68e-010	5.7511e-010
    20	1.06121e-010	4.69e-010	5.75121e-010
    21	1.05126e-010	4.7e-010	5.75126e-010
    22	1.0414e-010	4.71e-010	5.7514e-010
    23	1.03146e-010	4.72e-010	5.75146e-010
    24	1.02161e-010	4.73e-010	5.75161e-010
    25	1.01168e-010	4.74e-010	5.75168e-010
    26	1.00183e-010	4.75e-010	5.75183e-010
    27	9.91896e-011	4.76e-010	5.7519e-010
    28	9.82054e-011	4.77e-010	5.75205e-010
    29	9.72129e-011	4.78e-010	5.75213e-010
    30	9.62297e-011	4.79e-010	5.7523e-010
    31	9.52383e-011	4.8e-010	5.75238e-010
    32	9.42567e-011	4.81e-010	5.75257e-010
    33	9.32674e-011	4.82e-010	5.75267e-010
    34	9.22881e-011	4.83e-010	5.75288e-010
    35	9.13023e-011	4.84e-010	5.75302e-010
    36	9.03273e-011	4.85e-010	5.75327e-010
    37	8.93477e-011	4.86e-010	5.75348e-010
    38	8.83801e-011	4.87e-010	5.7538e-010
    39	8.74107e-011	4.88e-010	5.75411e-010
    40	8.64571e-011	4.89e-010	5.75457e-010
    41	8.55056e-011	4.9e-010	5.75506e-010
    42	8.45772e-011	4.91e-010	5.75577e-010
    43	8.36591e-011	4.92e-010	5.75659e-010
    44	8.27762e-011	4.93e-010	5.75776e-010
    45	8.19204e-011	4.94e-010	5.7592e-010
    46	8.11192e-011	4.95e-010	5.76119e-010
    47	8.03831e-011	4.96e-010	5.76383e-010
    48	7.97307e-011	4.97e-010	5.76731e-010
    49	7.92102e-011	4.98e-010	5.7721e-010
    50	7.88643e-011	4.99e-010	5.77864e-010
    51	7.87725e-011	5e-010	5.78772e-010
    52	7.90689e-011	5.01e-010	5.80069e-010
    53	8.00091e-011	5.02e-010	5.82009e-010
    54	8.21934e-011	5.03e-010	5.85193e-010
    55	8.76568e-011	5.04e-010	5.91657e-010
    56	1.0702e-009	5.05e-010	1.5752e-009
    57	1.0692e-009	5.06e-010	1.5752e-009
    58	1.0682e-009	5.07e-010	1.5752e-009
    59	1.0672e-009	5.08e-010	1.5752e-009
    60	1.0662e-009	5.09e-010	1.5752e-009
    61	1.0652e-009	5.1e-010	1.5752e-009
    62	1.0642e-009	5.11e-010	1.5752e-009
    63	1.0632e-009	5.12e-010	1.5752e-009
    64	1.0622e-009	5.13e-010	1.5752e-009
    65	1.0612e-009	5.14e-010	1.5752e-009
    66	1.0602e-009	5.15e-010	1.5752e-009
    67	1.0592e-009	5.16e-010	1.5752e-009
    68	1.0582e-009	5.17e-010	1.5752e-009
    69	1.0572e-009	5.18e-010	1.5752e-009
    70	1.0562e-009	5.19e-010	1.5752e-009
    71	1.0552e-009	5.2e-010	1.5752e-009
    72	1.0542e-009	5.21e-010	1.5752e-009
    73	1.0532e-009	5.22e-010	1.5752e-009
    74	1.0522e-009	5.23e-010	1.5752e-009
    75	1.0512e-009	5.24e-010	1.5752e-009
    76	1.05019e-009	5.25e-010	1.57519e-009
    77	1.0492e-009	5.26e-010	1.5752e-009
    78	1.04819e-009	5.27e-010	1.57519e-009
    79	1.0472e-009	5.28e-010	1.5752e-009
    80	1.04619e-009	5.29e-010	1.57519e-009
    81	1.0452e-009	5.3e-010	1.5752e-009
    82	1.04419e-009	5.31e-010	1.57519e-009
    83	1.0432e-009	5.32e-010	1.5752e-009
    84	1.04219e-009	5.33e-010	1.57519e-009
    85	1.0412e-009	5.34e-010	1.5752e-009
    86	1.04019e-009	5.35e-010	1.57519e-009
    87	1.0392e-009	5.36e-010	1.5752e-009
    88	1.03819e-009	5.37e-010	1.57519e-009
    89	1.0372e-009	5.38e-010	1.5752e-009
    90	1.03619e-009	5.39e-010	1.57519e-009
    91	1.0352e-009	5.4e-010	1.5752e-009


Date: Mon Dec 06 23:45:50 2021
Total elapsed time: 8.149 seconds.

tnom = 27
temp = 27
method = modified trap
totiter = 2363
traniter = 2363
tranpoints = 1099
accept = 1086
rejected = 13
matrix size = 100
fillins = 2
solver = Normal
Thread vector: 37.3/18.6[2] 3.6/2.8[2] 1.7/1.6[1] 0.7/1.6[1]  2592/500
Matrix Compiler1: 13.63 KB object code size  2.6/1.5/[0.7]
Matrix Compiler2: 12.54 KB object code size  1.1/1.4/[0.6]

