Circuit: *** SPICE deck for cell FF_tb{sch} from library 8bit-CSM

Per .tran options, skipping operating point for transient analysis.
.step t=1.603e-009
.step t=1.6035e-009
.step t=1.604e-009
.step t=1.6045e-009
.step t=1.605e-009
.step t=1.6055e-009
.step t=1.606e-009
.step t=1.6065e-009
.step t=1.607e-009
.step t=1.6075e-009
.step t=1.608e-009
.step t=1.6085e-009
.step t=1.609e-009
.step t=1.6095e-009
.step t=1.61e-009
.step t=1.6105e-009
.step t=1.611e-009
.step t=1.6115e-009
.step t=1.612e-009
.step t=1.6125e-009
.step t=1.613e-009
.step t=1.6135e-009
.step t=1.614e-009
.step t=1.6145e-009
.step t=1.615e-009
.step t=1.6155e-009
.step t=1.616e-009
.step t=1.6165e-009
.step t=1.617e-009
.step t=1.6175e-009
.step t=1.618e-009
.step t=1.6185e-009
.step t=1.619e-009
.step t=1.6195e-009
.step t=1.62e-009
.step t=1.6205e-009
.step t=1.621e-009
.step t=1.6215e-009
.step t=1.622e-009
.step t=1.6225e-009
.step t=1.623e-009
.step t=1.6235e-009
.step t=1.624e-009
.step t=1.6245e-009
.step t=1.625e-009
.step t=1.6255e-009
.step t=1.626e-009
.step t=1.6265e-009
.step t=1.627e-009
.step t=1.6275e-009
.step t=1.628e-009
.step t=1.6285e-009
.step t=1.629e-009
.step t=1.6295e-009
.step t=1.63e-009
.step t=1.6305e-009
.step t=1.631e-009
.step t=1.6315e-009
.step t=1.632e-009
.step t=1.6325e-009
.step t=1.633e-009
.step t=1.6335e-009
.step t=1.634e-009
.step t=1.6345e-009
.step t=1.635e-009
.step t=1.6355e-009
.step t=1.636e-009
.step t=1.6365e-009
.step t=1.637e-009
.step t=1.6375e-009
.step t=1.638e-009
.step t=1.6385e-009
.step t=1.639e-009
.step t=1.6395e-009
.step t=1.64e-009
.step t=1.6405e-009
.step t=1.641e-009
.step t=1.6415e-009
.step t=1.642e-009
.step t=1.6425e-009
.step t=1.643e-009
.step t=1.6435e-009
.step t=1.644e-009
.step t=1.6445e-009
.step t=1.645e-009
.step t=1.6455e-009
.step t=1.646e-009
.step t=1.6465e-009
.step t=1.647e-009
.step t=1.6475e-009
.step t=1.648e-009
.step t=1.6485e-009
.step t=1.649e-009
.step t=1.6495e-009
.step t=1.65e-009
.step t=1.6505e-009
.step t=1.651e-009
.step t=1.6515e-009
.step t=1.652e-009
.step t=1.6525e-009
.step t=1.653e-009


Measurement: tdc
  step	tdc	FROM	TO
     1	7.36601e-011	1.598e-009	1.67166e-009
     2	7.31458e-011	1.5985e-009	1.67165e-009
     3	7.2663e-011	1.599e-009	1.67166e-009
     4	7.21771e-011	1.5995e-009	1.67168e-009
     5	7.16595e-011	1.6e-009	1.67166e-009
     6	7.11559e-011	1.6005e-009	1.67166e-009
     7	7.06656e-011	1.601e-009	1.67167e-009
     8	7.01807e-011	1.6015e-009	1.67168e-009
     9	6.96951e-011	1.602e-009	1.6717e-009
    10	6.91781e-011	1.6025e-009	1.67168e-009
    11	6.86769e-011	1.603e-009	1.67168e-009
    12	6.81892e-011	1.6035e-009	1.67169e-009
    13	6.77061e-011	1.604e-009	1.67171e-009
    14	6.72202e-011	1.6045e-009	1.67172e-009
    15	6.67055e-011	1.605e-009	1.67171e-009
    16	6.62082e-011	1.6055e-009	1.67171e-009
    17	6.57225e-011	1.606e-009	1.67172e-009
    18	6.52429e-011	1.6065e-009	1.67174e-009
    19	6.47574e-011	1.607e-009	1.67176e-009
    20	6.42468e-011	1.6075e-009	1.67175e-009
    21	6.37531e-011	1.608e-009	1.67175e-009
    22	6.32709e-011	1.6085e-009	1.67177e-009
    23	6.27935e-011	1.609e-009	1.67179e-009
    24	6.23111e-011	1.6095e-009	1.67181e-009
    25	6.18046e-011	1.61e-009	1.6718e-009
    26	6.13148e-011	1.6105e-009	1.67181e-009
    27	6.08366e-011	1.611e-009	1.67184e-009
    28	6.03637e-011	1.6115e-009	1.67186e-009
    29	5.98869e-011	1.612e-009	1.67189e-009
    30	5.93845e-011	1.6125e-009	1.67188e-009
    31	5.88989e-011	1.613e-009	1.6719e-009
    32	5.8426e-011	1.6135e-009	1.67193e-009
    33	5.7957e-011	1.614e-009	1.67196e-009
    34	5.74885e-011	1.6145e-009	1.67199e-009
    35	5.69904e-011	1.615e-009	1.67199e-009
    36	5.65092e-011	1.6155e-009	1.67201e-009
    37	5.60412e-011	1.616e-009	1.67204e-009
    38	5.55769e-011	1.6165e-009	1.67208e-009
    39	5.51143e-011	1.617e-009	1.67211e-009
    40	5.4625e-011	1.6175e-009	1.67213e-009
    41	5.41475e-011	1.618e-009	1.67215e-009
    42	5.36824e-011	1.6185e-009	1.67218e-009
    43	5.32244e-011	1.619e-009	1.67222e-009
    44	5.27677e-011	1.6195e-009	1.67227e-009
    45	5.22891e-011	1.62e-009	1.67229e-009
    46	5.18138e-011	1.6205e-009	1.67231e-009
    47	5.13514e-011	1.621e-009	1.67235e-009
    48	5.08967e-011	1.6215e-009	1.6724e-009
    49	5.04443e-011	1.622e-009	1.67244e-009
    50	4.99769e-011	1.6225e-009	1.67248e-009
    51	4.95011e-011	1.623e-009	1.6725e-009
    52	4.90387e-011	1.6235e-009	1.67254e-009
    53	4.85845e-011	1.624e-009	1.67258e-009
    54	4.81334e-011	1.6245e-009	1.67263e-009
    55	4.76763e-011	1.625e-009	1.67268e-009
    56	4.71959e-011	1.6255e-009	1.6727e-009
    57	4.67298e-011	1.626e-009	1.67273e-009
    58	4.62733e-011	1.6265e-009	1.67277e-009
    59	4.58211e-011	1.627e-009	1.67282e-009
    60	4.53674e-011	1.6275e-009	1.67287e-009
    61	4.48875e-011	1.628e-009	1.67289e-009
    62	4.4416e-011	1.6285e-009	1.67292e-009
    63	4.39549e-011	1.629e-009	1.67295e-009
    64	4.34988e-011	1.6295e-009	1.673e-009
    65	4.30425e-011	1.63e-009	1.67304e-009
    66	4.25642e-011	1.6305e-009	1.67306e-009
    67	4.20841e-011	1.631e-009	1.67308e-009
    68	4.16156e-011	1.6315e-009	1.67312e-009
    69	4.11531e-011	1.632e-009	1.67315e-009
    70	4.06911e-011	1.6325e-009	1.67319e-009
    71	4.02121e-011	1.633e-009	1.67321e-009
    72	3.97202e-011	1.6335e-009	1.67322e-009
    73	3.9242e-011	1.634e-009	1.67324e-009
    74	3.8771e-011	1.6345e-009	1.67327e-009
    75	3.83015e-011	1.635e-009	1.6733e-009
    76	3.78151e-011	1.6355e-009	1.67332e-009
    77	3.73131e-011	1.636e-009	1.67331e-009
    78	3.68235e-011	1.6365e-009	1.67332e-009
    79	3.63415e-011	1.637e-009	1.67334e-009
    80	3.58608e-011	1.6375e-009	1.67336e-009
    81	3.53614e-011	1.638e-009	1.67336e-009
    82	3.48408e-011	1.6385e-009	1.67334e-009
    83	3.43338e-011	1.639e-009	1.67333e-009
    84	3.38332e-011	1.6395e-009	1.67333e-009
    85	3.33318e-011	1.64e-009	1.67333e-009
    86	3.27991e-011	1.6405e-009	1.6733e-009
    87	3.22533e-011	1.641e-009	1.67325e-009
    88	3.17202e-011	1.6415e-009	1.67322e-009
    89	3.11926e-011	1.642e-009	1.67319e-009
    90	3.06636e-011	1.6425e-009	1.67316e-009
    91	3.00879e-011	1.643e-009	1.67309e-009
    92	2.95321e-011	1.6435e-009	1.67303e-009
    93	2.89939e-011	1.644e-009	1.67299e-009
    94	2.84676e-011	1.6445e-009	1.67297e-009
    95	2.79088e-011	1.645e-009	1.67291e-009
    96	2.73198e-011	1.6455e-009	1.67282e-009
    97	2.67348e-011	1.646e-009	1.67273e-009
    98	2.61357e-011	1.6465e-009	1.67264e-009
    99	2.54579e-011	1.647e-009	1.67246e-009
   100	2.47094e-011	1.6475e-009	1.67221e-009
   101	2.39993e-011	1.648e-009	1.672e-009

Measurement: tcq
  step	tcq	FROM	TO
     1	5.73882e-012	1.67166e-009	1.6774e-009
     2	5.74238e-012	1.67165e-009	1.67739e-009
     3	5.72604e-012	1.67166e-009	1.67739e-009
     4	5.72385e-012	1.67168e-009	1.6774e-009
     5	5.75231e-012	1.67166e-009	1.67741e-009
     6	5.75014e-012	1.67166e-009	1.67741e-009
     7	5.7326e-012	1.67167e-009	1.6774e-009
     8	5.72479e-012	1.67168e-009	1.67741e-009
     9	5.72324e-012	1.6717e-009	1.67742e-009
    10	5.75274e-012	1.67168e-009	1.67743e-009
    11	5.74722e-012	1.67168e-009	1.67742e-009
    12	5.73072e-012	1.67169e-009	1.67742e-009
    13	5.72337e-012	1.67171e-009	1.67743e-009
    14	5.72477e-012	1.67172e-009	1.67744e-009
    15	5.7524e-012	1.67171e-009	1.67746e-009
    16	5.74454e-012	1.67171e-009	1.67745e-009
    17	5.72875e-012	1.67172e-009	1.67745e-009
    18	5.7218e-012	1.67174e-009	1.67746e-009
    19	5.72499e-012	1.67176e-009	1.67748e-009
    20	5.75133e-012	1.67175e-009	1.6775e-009
    21	5.74221e-012	1.67175e-009	1.6775e-009
    22	5.72684e-012	1.67177e-009	1.6775e-009
    23	5.72005e-012	1.67179e-009	1.67751e-009
    24	5.72374e-012	1.67181e-009	1.67753e-009
    25	5.74958e-012	1.6718e-009	1.67755e-009
    26	5.7404e-012	1.67181e-009	1.67756e-009
    27	5.72507e-012	1.67184e-009	1.67756e-009
    28	5.71828e-012	1.67186e-009	1.67758e-009
    29	5.72073e-012	1.67189e-009	1.67761e-009
    30	5.74716e-012	1.67188e-009	1.67763e-009
    31	5.73953e-012	1.6719e-009	1.67764e-009
    32	5.7238e-012	1.67193e-009	1.67765e-009
    33	5.71674e-012	1.67196e-009	1.67767e-009
    34	5.71586e-012	1.67199e-009	1.6777e-009
    35	5.74412e-012	1.67199e-009	1.67773e-009
    36	5.74025e-012	1.67201e-009	1.67775e-009
    37	5.72353e-012	1.67204e-009	1.67776e-009
    38	5.71595e-012	1.67208e-009	1.67779e-009
    39	5.71454e-012	1.67211e-009	1.67783e-009
    40	5.74056e-012	1.67213e-009	1.67787e-009
    41	5.74373e-012	1.67215e-009	1.67789e-009
    42	5.72522e-012	1.67218e-009	1.67791e-009
    43	5.7169e-012	1.67222e-009	1.67794e-009
    44	5.71491e-012	1.67227e-009	1.67798e-009
    45	5.73685e-012	1.67229e-009	1.67803e-009
    46	5.74853e-012	1.67231e-009	1.67806e-009
    47	5.73067e-012	1.67235e-009	1.67808e-009
    48	5.72124e-012	1.6724e-009	1.67812e-009
    49	5.71871e-012	1.67244e-009	1.67816e-009
    50	5.73435e-012	1.67248e-009	1.67821e-009
    51	5.75436e-012	1.6725e-009	1.67826e-009
    52	5.74243e-012	1.67254e-009	1.67828e-009
    53	5.73159e-012	1.67258e-009	1.67832e-009
    54	5.72867e-012	1.67263e-009	1.67836e-009
    55	5.73591e-012	1.67268e-009	1.67841e-009
    56	5.76473e-012	1.6727e-009	1.67846e-009
    57	5.76374e-012	1.67273e-009	1.67849e-009
    58	5.75112e-012	1.67277e-009	1.67852e-009
    59	5.74784e-012	1.67282e-009	1.67857e-009
    60	5.75172e-012	1.67287e-009	1.67862e-009
    61	5.78229e-012	1.67289e-009	1.67867e-009
    62	5.79535e-012	1.67292e-009	1.67871e-009
    63	5.78203e-012	1.67295e-009	1.67874e-009
    64	5.77836e-012	1.673e-009	1.67878e-009
    65	5.78239e-012	1.67304e-009	1.67882e-009
    66	5.81026e-012	1.67306e-009	1.67887e-009
    67	5.83409e-012	1.67308e-009	1.67892e-009
    68	5.82698e-012	1.67312e-009	1.67894e-009
    69	5.82285e-012	1.67315e-009	1.67898e-009
    70	5.82745e-012	1.67319e-009	1.67902e-009
    71	5.85317e-012	1.67321e-009	1.67907e-009
    72	5.88628e-012	1.67322e-009	1.67911e-009
    73	5.88847e-012	1.67324e-009	1.67913e-009
    74	5.88401e-012	1.67327e-009	1.67916e-009
    75	5.88944e-012	1.6733e-009	1.67919e-009
    76	5.91312e-012	1.67332e-009	1.67923e-009
    77	5.95599e-012	1.67331e-009	1.67927e-009
    78	5.96866e-012	1.67332e-009	1.67929e-009
    79	5.96497e-012	1.67334e-009	1.67931e-009
    80	5.97255e-012	1.67336e-009	1.67933e-009
    81	6.00258e-012	1.67336e-009	1.67936e-009
    82	6.05249e-012	1.67334e-009	1.67939e-009
    83	6.07502e-012	1.67333e-009	1.67941e-009
    84	6.0758e-012	1.67333e-009	1.67941e-009
    85	6.08988e-012	1.67333e-009	1.67942e-009
    86	6.13954e-012	1.6733e-009	1.67944e-009
    87	6.20074e-012	1.67325e-009	1.67945e-009
    88	6.23651e-012	1.67322e-009	1.67946e-009
    89	6.25649e-012	1.67319e-009	1.67945e-009
    90	6.29799e-012	1.67316e-009	1.67946e-009
    91	6.40451e-012	1.67309e-009	1.67949e-009
    92	6.51466e-012	1.67303e-009	1.67955e-009
    93	6.6406e-012	1.67299e-009	1.67963e-009
    94	6.81484e-012	1.67297e-009	1.67978e-009
    95	7.15033e-012	1.67291e-009	1.68006e-009
    96	7.73699e-012	1.67282e-009	1.68056e-009
    97	8.73182e-012	1.67273e-009	1.68147e-009
    98	1.05031e-011	1.67264e-009	1.68314e-009
    99	1.35847e-011	1.67246e-009	1.68604e-009
   100	1.88269e-011	1.67221e-009	1.69104e-009
   101	2.88309e-011	1.672e-009	1.70083e-009

Measurement: tdq
  step	tdq	FROM	TO
     1	7.93989e-011	1.598e-009	1.6774e-009
     2	7.88882e-011	1.5985e-009	1.67739e-009
     3	7.83891e-011	1.599e-009	1.67739e-009
     4	7.7901e-011	1.5995e-009	1.6774e-009
     5	7.74118e-011	1.6e-009	1.67741e-009
     6	7.6906e-011	1.6005e-009	1.67741e-009
     7	7.63982e-011	1.601e-009	1.6774e-009
     8	7.59055e-011	1.6015e-009	1.67741e-009
     9	7.54183e-011	1.602e-009	1.67742e-009
    10	7.49308e-011	1.6025e-009	1.67743e-009
    11	7.44241e-011	1.603e-009	1.67742e-009
    12	7.39199e-011	1.6035e-009	1.67742e-009
    13	7.34295e-011	1.604e-009	1.67743e-009
    14	7.29449e-011	1.6045e-009	1.67744e-009
    15	7.24579e-011	1.605e-009	1.67746e-009
    16	7.19527e-011	1.6055e-009	1.67745e-009
    17	7.14512e-011	1.606e-009	1.67745e-009
    18	7.09647e-011	1.6065e-009	1.67746e-009
    19	7.04824e-011	1.607e-009	1.67748e-009
    20	6.99981e-011	1.6075e-009	1.6775e-009
    21	6.94953e-011	1.608e-009	1.6775e-009
    22	6.89977e-011	1.6085e-009	1.6775e-009
    23	6.85135e-011	1.609e-009	1.67751e-009
    24	6.80348e-011	1.6095e-009	1.67753e-009
    25	6.75542e-011	1.61e-009	1.67755e-009
    26	6.70552e-011	1.6105e-009	1.67756e-009
    27	6.65616e-011	1.611e-009	1.67756e-009
    28	6.6082e-011	1.6115e-009	1.67758e-009
    29	6.56076e-011	1.612e-009	1.67761e-009
    30	6.51317e-011	1.6125e-009	1.67763e-009
    31	6.46385e-011	1.613e-009	1.67764e-009
    32	6.41498e-011	1.6135e-009	1.67765e-009
    33	6.36737e-011	1.614e-009	1.67767e-009
    34	6.32044e-011	1.6145e-009	1.6777e-009
    35	6.27345e-011	1.615e-009	1.67773e-009
    36	6.22494e-011	1.6155e-009	1.67775e-009
    37	6.17648e-011	1.616e-009	1.67776e-009
    38	6.12928e-011	1.6165e-009	1.67779e-009
    39	6.08289e-011	1.617e-009	1.67783e-009
    40	6.03656e-011	1.6175e-009	1.67787e-009
    41	5.98912e-011	1.618e-009	1.67789e-009
    42	5.94076e-011	1.6185e-009	1.67791e-009
    43	5.89413e-011	1.619e-009	1.67794e-009
    44	5.84827e-011	1.6195e-009	1.67798e-009
    45	5.80259e-011	1.62e-009	1.67803e-009
    46	5.75623e-011	1.6205e-009	1.67806e-009
    47	5.7082e-011	1.621e-009	1.67808e-009
    48	5.6618e-011	1.6215e-009	1.67812e-009
    49	5.6163e-011	1.622e-009	1.67816e-009
    50	5.57112e-011	1.6225e-009	1.67821e-009
    51	5.52554e-011	1.623e-009	1.67826e-009
    52	5.47811e-011	1.6235e-009	1.67828e-009
    53	5.43161e-011	1.624e-009	1.67832e-009
    54	5.38621e-011	1.6245e-009	1.67836e-009
    55	5.34122e-011	1.625e-009	1.67841e-009
    56	5.29607e-011	1.6255e-009	1.67846e-009
    57	5.24936e-011	1.626e-009	1.67849e-009
    58	5.20245e-011	1.6265e-009	1.67852e-009
    59	5.15689e-011	1.627e-009	1.67857e-009
    60	5.11191e-011	1.6275e-009	1.67862e-009
    61	5.06698e-011	1.628e-009	1.67867e-009
    62	5.02113e-011	1.6285e-009	1.67871e-009
    63	4.97369e-011	1.629e-009	1.67874e-009
    64	4.92772e-011	1.6295e-009	1.67878e-009
    65	4.88249e-011	1.63e-009	1.67882e-009
    66	4.83744e-011	1.6305e-009	1.67887e-009
    67	4.79182e-011	1.631e-009	1.67892e-009
    68	4.74426e-011	1.6315e-009	1.67894e-009
    69	4.6976e-011	1.632e-009	1.67898e-009
    70	4.65186e-011	1.6325e-009	1.67902e-009
    71	4.60652e-011	1.633e-009	1.67907e-009
    72	4.56065e-011	1.6335e-009	1.67911e-009
    73	4.51305e-011	1.634e-009	1.67913e-009
    74	4.4655e-011	1.6345e-009	1.67916e-009
    75	4.41909e-011	1.635e-009	1.67919e-009
    76	4.37282e-011	1.6355e-009	1.67923e-009
    77	4.32691e-011	1.636e-009	1.67927e-009
    78	4.27922e-011	1.6365e-009	1.67929e-009
    79	4.23065e-011	1.637e-009	1.67931e-009
    80	4.18333e-011	1.6375e-009	1.67933e-009
    81	4.1364e-011	1.638e-009	1.67936e-009
    82	4.08933e-011	1.6385e-009	1.67939e-009
    83	4.04088e-011	1.639e-009	1.67941e-009
    84	3.9909e-011	1.6395e-009	1.67941e-009
    85	3.94217e-011	1.64e-009	1.67942e-009
    86	3.89386e-011	1.6405e-009	1.67944e-009
    87	3.84541e-011	1.641e-009	1.67945e-009
    88	3.79567e-011	1.6415e-009	1.67946e-009
    89	3.74491e-011	1.642e-009	1.67945e-009
    90	3.69616e-011	1.6425e-009	1.67946e-009
    91	3.64925e-011	1.643e-009	1.67949e-009
    92	3.60468e-011	1.6435e-009	1.67955e-009
    93	3.56345e-011	1.644e-009	1.67963e-009
    94	3.52824e-011	1.6445e-009	1.67978e-009
    95	3.50592e-011	1.645e-009	1.68006e-009
    96	3.50568e-011	1.6455e-009	1.68056e-009
    97	3.54666e-011	1.646e-009	1.68147e-009
    98	3.66388e-011	1.6465e-009	1.68314e-009
    99	3.90426e-011	1.647e-009	1.68604e-009
   100	4.35363e-011	1.6475e-009	1.69104e-009
   101	5.28302e-011	1.648e-009	1.70083e-009


Date: Thu Dec 09 17:22:33 2021
Total elapsed time: 14.622 seconds.

tnom = 27
temp = 27
method = modified trap
totiter = 2426
traniter = 2426
tranpoints = 1123
accept = 1106
rejected = 17
matrix size = 80
fillins = 8
solver = Normal
Matrix Compiler1: 12.02 KB object code size  5.9/3.3/[1.7]
Matrix Compiler2: 9.86 KB object code size  2.3/3.8/[1.4]

