Circuit: *** SPICE deck for cell FF_tb{sch} from library 8bit-CSM

Per .tran options, skipping operating point for transient analysis.
.step t=1.467e-009
.step t=1.4675e-009
.step t=1.468e-009
.step t=1.4685e-009
.step t=1.469e-009
.step t=1.4695e-009
.step t=1.47e-009
.step t=1.4705e-009
.step t=1.471e-009
.step t=1.4715e-009
.step t=1.472e-009
.step t=1.4725e-009
.step t=1.473e-009
.step t=1.4735e-009
.step t=1.474e-009
.step t=1.4745e-009
.step t=1.475e-009
.step t=1.4755e-009
.step t=1.476e-009
.step t=1.4765e-009
.step t=1.477e-009
.step t=1.4775e-009
.step t=1.478e-009
.step t=1.4785e-009
.step t=1.479e-009
.step t=1.4795e-009
.step t=1.48e-009
.step t=1.4805e-009
.step t=1.481e-009
.step t=1.4815e-009
.step t=1.482e-009
.step t=1.4825e-009
.step t=1.483e-009
.step t=1.4835e-009
.step t=1.484e-009
.step t=1.4845e-009
.step t=1.485e-009
.step t=1.4855e-009
.step t=1.486e-009
.step t=1.4865e-009
.step t=1.487e-009
.step t=1.4875e-009
.step t=1.488e-009
.step t=1.4885e-009
.step t=1.489e-009
.step t=1.4895e-009
.step t=1.49e-009
.step t=1.4905e-009
.step t=1.491e-009
.step t=1.4915e-009
.step t=1.492e-009
.step t=1.4925e-009
.step t=1.493e-009
.step t=1.4935e-009
.step t=1.494e-009
.step t=1.4945e-009
.step t=1.495e-009
.step t=1.4955e-009
.step t=1.496e-009
.step t=1.4965e-009
.step t=1.497e-009
.step t=1.4975e-009
.step t=1.498e-009
.step t=1.4985e-009
.step t=1.499e-009
.step t=1.4995e-009
.step t=1.5e-009
.step t=1.5005e-009
.step t=1.501e-009
.step t=1.5015e-009
.step t=1.502e-009
.step t=1.5025e-009
.step t=1.503e-009
.step t=1.5035e-009
.step t=1.504e-009
.step t=1.5045e-009
.step t=1.505e-009
.step t=1.5055e-009
.step t=1.506e-009
.step t=1.5065e-009
.step t=1.507e-009
.step t=1.5075e-009
.step t=1.508e-009
.step t=1.5085e-009
.step t=1.509e-009
.step t=1.5095e-009
.step t=1.51e-009
.step t=1.5105e-009
.step t=1.511e-009
.step t=1.5115e-009
.step t=1.512e-009
.step t=1.5125e-009
.step t=1.513e-009
.step t=1.5135e-009
.step t=1.514e-009
.step t=1.5145e-009
.step t=1.515e-009
.step t=1.5155e-009
.step t=1.516e-009
.step t=1.5165e-009
.step t=1.517e-009


Measurement: tdc
  step	tdc	FROM	TO
     1	6.17379e-011	1.462e-009	1.52374e-009
     2	6.12377e-011	1.4625e-009	1.52374e-009
     3	6.07393e-011	1.463e-009	1.52374e-009
     4	6.03329e-011	1.4635e-009	1.52383e-009
     5	5.97627e-011	1.464e-009	1.52376e-009
     6	5.92388e-011	1.4645e-009	1.52374e-009
     7	5.87396e-011	1.465e-009	1.52374e-009
     8	5.82396e-011	1.4655e-009	1.52374e-009
     9	5.77391e-011	1.466e-009	1.52374e-009
    10	5.72587e-011	1.4665e-009	1.52376e-009
    11	5.68212e-011	1.467e-009	1.52382e-009
    12	5.62399e-011	1.4675e-009	1.52374e-009
    13	5.574e-011	1.468e-009	1.52374e-009
    14	5.52403e-011	1.4685e-009	1.52374e-009
    15	5.47425e-011	1.469e-009	1.52374e-009
    16	5.42389e-011	1.4695e-009	1.52374e-009
    17	5.37403e-011	1.47e-009	1.52374e-009
    18	5.32404e-011	1.4705e-009	1.52374e-009
    19	5.28289e-011	1.471e-009	1.52383e-009
    20	5.22715e-011	1.4715e-009	1.52377e-009
    21	5.17419e-011	1.472e-009	1.52374e-009
    22	5.12407e-011	1.4725e-009	1.52374e-009
    23	5.07408e-011	1.473e-009	1.52374e-009
    24	5.02401e-011	1.4735e-009	1.52374e-009
    25	4.97665e-011	1.474e-009	1.52377e-009
    26	4.92409e-011	1.4745e-009	1.52374e-009
    27	4.87412e-011	1.475e-009	1.52374e-009
    28	4.82413e-011	1.4755e-009	1.52374e-009
    29	4.7742e-011	1.476e-009	1.52374e-009
    30	4.72837e-011	1.4765e-009	1.52378e-009
    31	4.67408e-011	1.477e-009	1.52374e-009
    32	4.62418e-011	1.4775e-009	1.52374e-009
    33	4.57419e-011	1.478e-009	1.52374e-009
    34	4.52638e-011	1.4785e-009	1.52376e-009
    35	4.47427e-011	1.479e-009	1.52374e-009
    36	4.4241e-011	1.4795e-009	1.52374e-009
    37	4.37425e-011	1.48e-009	1.52374e-009
    38	4.32426e-011	1.4805e-009	1.52374e-009
    39	4.28257e-011	1.481e-009	1.52383e-009
    40	4.2242e-011	1.4815e-009	1.52374e-009
    41	4.17416e-011	1.482e-009	1.52374e-009
    42	4.12433e-011	1.4825e-009	1.52374e-009
    43	4.07435e-011	1.483e-009	1.52374e-009
    44	4.0298e-011	1.4835e-009	1.5238e-009
    45	3.97447e-011	1.484e-009	1.52374e-009
    46	3.92441e-011	1.4845e-009	1.52374e-009
    47	3.87443e-011	1.485e-009	1.52374e-009
    48	3.82441e-011	1.4855e-009	1.52374e-009
    49	3.77825e-011	1.486e-009	1.52378e-009
    50	3.73075e-011	1.4865e-009	1.52381e-009
    51	3.67455e-011	1.487e-009	1.52375e-009
    52	3.62458e-011	1.4875e-009	1.52375e-009
    53	3.57466e-011	1.488e-009	1.52375e-009
    54	3.52469e-011	1.4885e-009	1.52375e-009
    55	3.47458e-011	1.489e-009	1.52375e-009
    56	3.42475e-011	1.4895e-009	1.52375e-009
    57	3.3748e-011	1.49e-009	1.52375e-009
    58	3.32732e-011	1.4905e-009	1.52377e-009
    59	3.28363e-011	1.491e-009	1.52384e-009
    60	3.22526e-011	1.4915e-009	1.52375e-009
    61	3.1751e-011	1.492e-009	1.52375e-009
    62	3.1252e-011	1.4925e-009	1.52375e-009
    63	3.07541e-011	1.493e-009	1.52375e-009
    64	3.0302e-011	1.4935e-009	1.5238e-009
    65	2.97714e-011	1.494e-009	1.52377e-009
    66	2.92576e-011	1.4945e-009	1.52376e-009
    67	2.87595e-011	1.495e-009	1.52376e-009
    68	2.82607e-011	1.4955e-009	1.52376e-009
    69	2.77871e-011	1.496e-009	1.52379e-009
    70	2.72661e-011	1.4965e-009	1.52377e-009
    71	2.67698e-011	1.497e-009	1.52377e-009
    72	2.62732e-011	1.4975e-009	1.52377e-009
    73	2.57794e-011	1.498e-009	1.52378e-009
    74	2.53129e-011	1.4985e-009	1.52381e-009
    75	2.47839e-011	1.499e-009	1.52378e-009
    76	2.43162e-011	1.4995e-009	1.52382e-009
    77	2.37973e-011	1.5e-009	1.5238e-009
    78	2.33665e-011	1.5005e-009	1.52387e-009
    79	2.28751e-011	1.501e-009	1.52388e-009
    80	2.23171e-011	1.5015e-009	1.52382e-009
    81	2.18883e-011	1.502e-009	1.52389e-009
    82	2.13204e-011	1.5025e-009	1.52382e-009
    83	2.08173e-011	1.503e-009	1.52382e-009
    84	2.03317e-011	1.5035e-009	1.52383e-009
    85	1.98721e-011	1.504e-009	1.52387e-009
    86	1.9416e-011	1.5045e-009	1.52392e-009
    87	1.88674e-011	1.505e-009	1.52387e-009
    88	1.83858e-011	1.5055e-009	1.52389e-009
    89	1.78952e-011	1.506e-009	1.5239e-009
    90	1.74514e-011	1.5065e-009	1.52395e-009
    91	1.69235e-011	1.507e-009	1.52392e-009
    92	1.64721e-011	1.5075e-009	1.52397e-009
    93	1.59853e-011	1.508e-009	1.52399e-009
    94	1.54517e-011	1.5085e-009	1.52395e-009
    95	1.50135e-011	1.509e-009	1.52401e-009
    96	1.45061e-011	1.5095e-009	1.52401e-009
    97	1.3982e-011	1.51e-009	1.52398e-009
    98	1.34465e-011	1.5105e-009	1.52395e-009
    99	1.28739e-011	1.511e-009	1.52387e-009
   100	1.23901e-011	1.5115e-009	1.52389e-009
   101	1.1803e-011	1.512e-009	1.5238e-009

Measurement: tcq
  step	tcq	FROM	TO
     1	4.97358e-012	1.52374e-009	1.52871e-009
     2	4.97379e-012	1.52374e-009	1.52871e-009
     3	4.97386e-012	1.52374e-009	1.52871e-009
     4	4.88394e-012	1.52383e-009	1.52872e-009
     5	4.9072e-012	1.52376e-009	1.52867e-009
     6	4.97437e-012	1.52374e-009	1.52871e-009
     7	4.97445e-012	1.52374e-009	1.52871e-009
     8	4.97462e-012	1.52374e-009	1.52871e-009
     9	4.97488e-012	1.52374e-009	1.52871e-009
    10	4.91245e-012	1.52376e-009	1.52867e-009
    11	4.84693e-012	1.52382e-009	1.52867e-009
    12	4.97532e-012	1.52374e-009	1.52872e-009
    13	4.97549e-012	1.52374e-009	1.52872e-009
    14	4.97564e-012	1.52374e-009	1.52872e-009
    15	4.97554e-012	1.52374e-009	1.52872e-009
    16	4.9762e-012	1.52374e-009	1.52872e-009
    17	4.97619e-012	1.52374e-009	1.52872e-009
    18	4.97637e-012	1.52374e-009	1.52872e-009
    19	4.9119e-012	1.52383e-009	1.52874e-009
    20	4.89895e-012	1.52377e-009	1.52867e-009
    21	4.97674e-012	1.52374e-009	1.52872e-009
    22	4.97708e-012	1.52374e-009	1.52872e-009
    23	4.97725e-012	1.52374e-009	1.52872e-009
    24	4.97755e-012	1.52374e-009	1.52872e-009
    25	4.90505e-012	1.52377e-009	1.52867e-009
    26	4.97783e-012	1.52374e-009	1.52872e-009
    27	4.97798e-012	1.52374e-009	1.52872e-009
    28	4.97816e-012	1.52374e-009	1.52872e-009
    29	4.97828e-012	1.52374e-009	1.52872e-009
    30	4.95523e-012	1.52378e-009	1.52874e-009
    31	4.97882e-012	1.52374e-009	1.52872e-009
    32	4.97889e-012	1.52374e-009	1.52872e-009
    33	4.97908e-012	1.52374e-009	1.52872e-009
    34	4.90925e-012	1.52376e-009	1.52867e-009
    35	4.97939e-012	1.52374e-009	1.52872e-009
    36	4.97982e-012	1.52374e-009	1.52872e-009
    37	4.9801e-012	1.52374e-009	1.52872e-009
    38	4.98004e-012	1.52374e-009	1.52872e-009
    39	4.91993e-012	1.52383e-009	1.52875e-009
    40	4.98055e-012	1.52374e-009	1.52872e-009
    41	4.98084e-012	1.52374e-009	1.52872e-009
    42	4.981e-012	1.52374e-009	1.52872e-009
    43	4.98106e-012	1.52374e-009	1.52872e-009
    44	4.86809e-012	1.5238e-009	1.52867e-009
    45	4.9814e-012	1.52374e-009	1.52873e-009
    46	4.98174e-012	1.52374e-009	1.52873e-009
    47	4.98197e-012	1.52374e-009	1.52873e-009
    48	4.9823e-012	1.52374e-009	1.52873e-009
    49	4.89317e-012	1.52378e-009	1.52868e-009
    50	4.86429e-012	1.52381e-009	1.52867e-009
    51	4.98301e-012	1.52375e-009	1.52873e-009
    52	4.9833e-012	1.52375e-009	1.52873e-009
    53	4.98356e-012	1.52375e-009	1.52873e-009
    54	4.98389e-012	1.52375e-009	1.52873e-009
    55	4.98442e-012	1.52375e-009	1.52873e-009
    56	4.98462e-012	1.52375e-009	1.52873e-009
    57	4.98465e-012	1.52375e-009	1.52873e-009
    58	4.9137e-012	1.52377e-009	1.52869e-009
    59	4.91442e-012	1.52384e-009	1.52875e-009
    60	4.98567e-012	1.52375e-009	1.52874e-009
    61	4.98666e-012	1.52375e-009	1.52874e-009
    62	4.98736e-012	1.52375e-009	1.52874e-009
    63	4.98804e-012	1.52375e-009	1.52874e-009
    64	4.88149e-012	1.5238e-009	1.52868e-009
    65	4.98361e-012	1.52377e-009	1.52876e-009
    66	4.99092e-012	1.52376e-009	1.52875e-009
    67	4.99252e-012	1.52376e-009	1.52875e-009
    68	4.99489e-012	1.52376e-009	1.52876e-009
    69	4.92462e-012	1.52379e-009	1.52871e-009
    70	4.99425e-012	1.52377e-009	1.52876e-009
    71	4.99952e-012	1.52377e-009	1.52877e-009
    72	5.00131e-012	1.52377e-009	1.52877e-009
    73	5.01123e-012	1.52378e-009	1.52879e-009
    74	4.99641e-012	1.52381e-009	1.52881e-009
    75	5.00548e-012	1.52378e-009	1.52879e-009
    76	4.99887e-012	1.52382e-009	1.52882e-009
    77	5.01374e-012	1.5238e-009	1.52881e-009
    78	4.96492e-012	1.52387e-009	1.52883e-009
    79	4.95212e-012	1.52388e-009	1.52883e-009
    80	5.01844e-012	1.52382e-009	1.52884e-009
    81	4.93788e-012	1.52389e-009	1.52883e-009
    82	5.02152e-012	1.52382e-009	1.52884e-009
    83	5.00833e-012	1.52382e-009	1.52883e-009
    84	5.02896e-012	1.52383e-009	1.52886e-009
    85	4.9306e-012	1.52387e-009	1.5288e-009
    86	4.92375e-012	1.52392e-009	1.52884e-009
    87	5.05778e-012	1.52387e-009	1.52893e-009
    88	5.07437e-012	1.52389e-009	1.52896e-009
    89	5.09894e-012	1.5239e-009	1.52899e-009
    90	5.09474e-012	1.52395e-009	1.52905e-009
    91	5.09032e-012	1.52392e-009	1.52901e-009
    92	5.20894e-012	1.52397e-009	1.52918e-009
    93	5.29437e-012	1.52399e-009	1.52928e-009
    94	5.41659e-012	1.52395e-009	1.52937e-009
    95	5.58695e-012	1.52401e-009	1.5296e-009
    96	5.70219e-012	1.52401e-009	1.52971e-009
    97	6.23862e-012	1.52398e-009	1.53022e-009
    98	6.86932e-012	1.52395e-009	1.53082e-009
    99	8.49852e-012	1.52387e-009	1.53237e-009
   100	1.05803e-011	1.52389e-009	1.53447e-009
   101	1.4324e-011	1.5238e-009	1.53813e-009

Measurement: tdq
  step	tdq	FROM	TO
     1	6.67115e-011	1.462e-009	1.52871e-009
     2	6.62115e-011	1.4625e-009	1.52871e-009
     3	6.57132e-011	1.463e-009	1.52871e-009
     4	6.52169e-011	1.4635e-009	1.52872e-009
     5	6.46699e-011	1.464e-009	1.52867e-009
     6	6.42132e-011	1.4645e-009	1.52871e-009
     7	6.3714e-011	1.465e-009	1.52871e-009
     8	6.32143e-011	1.4655e-009	1.52871e-009
     9	6.2714e-011	1.466e-009	1.52871e-009
    10	6.21712e-011	1.4665e-009	1.52867e-009
    11	6.16681e-011	1.467e-009	1.52867e-009
    12	6.12152e-011	1.4675e-009	1.52872e-009
    13	6.07155e-011	1.468e-009	1.52872e-009
    14	6.0216e-011	1.4685e-009	1.52872e-009
    15	5.97181e-011	1.469e-009	1.52872e-009
    16	5.92151e-011	1.4695e-009	1.52872e-009
    17	5.87165e-011	1.47e-009	1.52872e-009
    18	5.82167e-011	1.4705e-009	1.52872e-009
    19	5.77408e-011	1.471e-009	1.52874e-009
    20	5.71705e-011	1.4715e-009	1.52867e-009
    21	5.67186e-011	1.472e-009	1.52872e-009
    22	5.62178e-011	1.4725e-009	1.52872e-009
    23	5.5718e-011	1.473e-009	1.52872e-009
    24	5.52176e-011	1.4735e-009	1.52872e-009
    25	5.46716e-011	1.474e-009	1.52867e-009
    26	5.42187e-011	1.4745e-009	1.52872e-009
    27	5.37192e-011	1.475e-009	1.52872e-009
    28	5.32195e-011	1.4755e-009	1.52872e-009
    29	5.27202e-011	1.476e-009	1.52872e-009
    30	5.22389e-011	1.4765e-009	1.52874e-009
    31	5.17196e-011	1.477e-009	1.52872e-009
    32	5.12207e-011	1.4775e-009	1.52872e-009
    33	5.0721e-011	1.478e-009	1.52872e-009
    34	5.01731e-011	1.4785e-009	1.52867e-009
    35	4.97221e-011	1.479e-009	1.52872e-009
    36	4.92208e-011	1.4795e-009	1.52872e-009
    37	4.87226e-011	1.48e-009	1.52872e-009
    38	4.82226e-011	1.4805e-009	1.52872e-009
    39	4.77457e-011	1.481e-009	1.52875e-009
    40	4.72226e-011	1.4815e-009	1.52872e-009
    41	4.67224e-011	1.482e-009	1.52872e-009
    42	4.62243e-011	1.4825e-009	1.52872e-009
    43	4.57245e-011	1.483e-009	1.52872e-009
    44	4.51661e-011	1.4835e-009	1.52867e-009
    45	4.47261e-011	1.484e-009	1.52873e-009
    46	4.42258e-011	1.4845e-009	1.52873e-009
    47	4.37263e-011	1.485e-009	1.52873e-009
    48	4.32263e-011	1.4855e-009	1.52873e-009
    49	4.26757e-011	1.486e-009	1.52868e-009
    50	4.21718e-011	1.4865e-009	1.52867e-009
    51	4.17285e-011	1.487e-009	1.52873e-009
    52	4.12291e-011	1.4875e-009	1.52873e-009
    53	4.07302e-011	1.488e-009	1.52873e-009
    54	4.02308e-011	1.4885e-009	1.52873e-009
    55	3.97302e-011	1.489e-009	1.52873e-009
    56	3.92321e-011	1.4895e-009	1.52873e-009
    57	3.87327e-011	1.49e-009	1.52873e-009
    58	3.81869e-011	1.4905e-009	1.52869e-009
    59	3.77507e-011	1.491e-009	1.52875e-009
    60	3.72382e-011	1.4915e-009	1.52874e-009
    61	3.67376e-011	1.492e-009	1.52874e-009
    62	3.62394e-011	1.4925e-009	1.52874e-009
    63	3.57421e-011	1.493e-009	1.52874e-009
    64	3.51835e-011	1.4935e-009	1.52868e-009
    65	3.47551e-011	1.494e-009	1.52876e-009
    66	3.42485e-011	1.4945e-009	1.52875e-009
    67	3.3752e-011	1.495e-009	1.52875e-009
    68	3.32556e-011	1.4955e-009	1.52876e-009
    69	3.27117e-011	1.496e-009	1.52871e-009
    70	3.22604e-011	1.4965e-009	1.52876e-009
    71	3.17693e-011	1.497e-009	1.52877e-009
    72	3.12745e-011	1.4975e-009	1.52877e-009
    73	3.07907e-011	1.498e-009	1.52879e-009
    74	3.03093e-011	1.4985e-009	1.52881e-009
    75	2.97893e-011	1.499e-009	1.52879e-009
    76	2.93151e-011	1.4995e-009	1.52882e-009
    77	2.88111e-011	1.5e-009	1.52881e-009
    78	2.83314e-011	1.5005e-009	1.52883e-009
    79	2.78272e-011	1.501e-009	1.52883e-009
    80	2.73356e-011	1.5015e-009	1.52884e-009
    81	2.68262e-011	1.502e-009	1.52883e-009
    82	2.63419e-011	1.5025e-009	1.52884e-009
    83	2.58256e-011	1.503e-009	1.52883e-009
    84	2.53606e-011	1.5035e-009	1.52886e-009
    85	2.48027e-011	1.504e-009	1.5288e-009
    86	2.43397e-011	1.5045e-009	1.52884e-009
    87	2.39252e-011	1.505e-009	1.52893e-009
    88	2.34601e-011	1.5055e-009	1.52896e-009
    89	2.29941e-011	1.506e-009	1.52899e-009
    90	2.25461e-011	1.5065e-009	1.52905e-009
    91	2.20138e-011	1.507e-009	1.52901e-009
    92	2.1681e-011	1.5075e-009	1.52918e-009
    93	2.12797e-011	1.508e-009	1.52928e-009
    94	2.08682e-011	1.5085e-009	1.52937e-009
    95	2.06004e-011	1.509e-009	1.5296e-009
    96	2.02083e-011	1.5095e-009	1.52971e-009
    97	2.02207e-011	1.51e-009	1.53022e-009
    98	2.03159e-011	1.5105e-009	1.53082e-009
    99	2.13725e-011	1.511e-009	1.53237e-009
   100	2.29704e-011	1.5115e-009	1.53447e-009
   101	2.6127e-011	1.512e-009	1.53813e-009


Date: Tue Dec 07 10:55:21 2021
Total elapsed time: 10.700 seconds.

tnom = 27
temp = 27
method = modified trap
totiter = 2380
traniter = 2380
tranpoints = 1113
accept = 1099
rejected = 14
matrix size = 62
fillins = 2
solver = Normal
Matrix Compiler1: 9.12 KB object code size  4.6/2.9/[1.2]
Matrix Compiler2: 7.61 KB object code size  1.9/2.8/[1.0]

