Circuit: *** SPICE deck for cell multiplier-tb{sch} from library 8bit-CSM

V17: Removing PWL point (1.81e-009,0.8)
V9: Removing PWL point (1.81e-009,0.8)
V8: Removing PWL point (1.81e-009,0.8)
V7: Removing PWL point (1.81e-009,0.8)
V6: Removing PWL point (1.81e-009,0.8)
V5: Removing PWL point (1.81e-009,0.8)
V4: Removing PWL point (1.81e-009,0.8)
V3: Removing PWL point (1.81e-009,0.8)
V2: Removing PWL point (1.81e-009,0.8)
Per .tran options, skipping operating point for transient analysis.

x1: (round(v(q_x7))*(-128) + round(v(q_x6))*64 + round(v(q_x5))*32 + round(v(q_x4))*16 +  round(v(q_x3))*8 + round(v(q_x2))*4 + round(v(q_x1))*2 + round(v(q_x0))*1)=-1 at 2.00447e-009
y1: (round(v(q_y7))*(-128) + round(v(q_y6))*64 + round(v(q_y5))*32 + round(v(q_y4))*16 +  round(v(q_y3))*8 + round(v(q_y2))*4 + round(v(q_y1))*2 + round(v(q_y0))*1)=-1 at 2.00447e-009
z1: (round(v(z15))*(-32768) + round(v(z14))*16384 + round(v(z13))*8192 + round(v(z12))*4096 +  round(v(z11))*2048 + round(v(z10))*1024 + round(v(z9))*512 + round(v(z8))*256 +  round(v(z7))*128 + round(v(z6))*64 + round(v(z5))*32 + round(v(z4))*16 +  round(v(z3))*8 + round(v(z2))*4 + round(v(z1))*2 + round(v(z0))*1)=1 at 2.57428e-009
x2: (round(v(q_x7))*(-128) + round(v(q_x6))*64 + round(v(q_x5))*32 + round(v(q_x4))*16 +  round(v(q_x3))*8 + round(v(q_x2))*4 + round(v(q_x1))*2 + round(v(q_x0))*1)=-1 at 2.57428e-009
y2: (round(v(q_y7))*(-128) + round(v(q_y6))*64 + round(v(q_y5))*32 + round(v(q_y4))*16 +  round(v(q_y3))*8 + round(v(q_y2))*4 + round(v(q_y1))*2 + round(v(q_y0))*1)=1 at 2.57428e-009
z2: (round(v(z15))*(-32768) + round(v(z14))*16384 + round(v(z13))*8192 + round(v(z12))*4096 +  round(v(z11))*2048 + round(v(z10))*1024 + round(v(z9))*512 + round(v(z8))*256 +  round(v(z7))*128 + round(v(z6))*64 + round(v(z5))*32 + round(v(z4))*16 +  round(v(z3))*8 + round(v(z2))*4 + round(v(z1))*2 + round(v(z0))*1)=-1 at 3.14439e-009


Date: Tue Dec 07 15:14:35 2021
Total elapsed time: 13.602 seconds.

tnom = 27
temp = 27
method = modified trap
totiter = 3061
traniter = 3061
tranpoints = 1154
accept = 1127
rejected = 27
matrix size = 9802
fillins = 5078
solver = Normal
Thread vector: 4724.7/1431.4[8] 1177.4/197.8[8] 732.6/393.2[8] 188.1/93.2[8]  2592/500
Matrix Compiler1: 2.70 MB object code size  2589.3/1331.2/[614.1]
Matrix Compiler2: 1.34 MB object code size  802.6/677.7/[298.4]

