Circuit: *** SPICE deck for cell multiplier-tb{sch} from library 8bit-CSM

V17: Removing PWL point (1.69e-009,0.8)
V15: Removing PWL point (1.69e-009,0.8)
V13: Removing PWL point (1.69e-009,0.8)
V12: Removing PWL point (1.69e-009,0.8)
V11: Removing PWL point (1.69e-009,0.8)
V10: Removing PWL point (1.69e-009,0.8)
V9: Removing PWL point (1.69e-009,0.8)
V7: Removing PWL point (1.69e-009,0.8)
V5: Removing PWL point (1.69e-009,0.8)
V4: Removing PWL point (1.69e-009,0.8)
V3: Removing PWL point (1.69e-009,0.8)
V2: Removing PWL point (1.69e-009,0.8)
Per .tran options, skipping operating point for transient analysis.

x1: (round(v(q_x7))*(-128) + round(v(q_x6))*64 + round(v(q_x5))*32 + round(v(q_x4))*16 +  round(v(q_x3))*8 + round(v(q_x2))*4 + round(v(q_x1))*2 + round(v(q_x0))*1)=0 at 1.35974e-009
y1: (round(v(q_y7))*(-128) + round(v(q_y6))*64 + round(v(q_y5))*32 + round(v(q_y4))*16 +  round(v(q_y3))*8 + round(v(q_y2))*4 + round(v(q_y1))*2 + round(v(q_y0))*1)=0 at 1.35974e-009
z1: (round(v(z15))*(-32768) + round(v(z14))*16384 + round(v(z13))*8192 + round(v(z12))*4096 +  round(v(z11))*2048 + round(v(z10))*1024 + round(v(z9))*512 + round(v(z8))*256 +  round(v(z7))*128 + round(v(z6))*64 + round(v(z5))*32 + round(v(z4))*16 +  round(v(z3))*8 + round(v(z2))*4 + round(v(z1))*2 + round(v(z0))*1)=0 at 1.9229e-009
x2: (round(v(q_x7))*(-128) + round(v(q_x6))*64 + round(v(q_x5))*32 + round(v(q_x4))*16 +  round(v(q_x3))*8 + round(v(q_x2))*4 + round(v(q_x1))*2 + round(v(q_x0))*1)=-1 at 1.9229e-009
y2: (round(v(q_y7))*(-128) + round(v(q_y6))*64 + round(v(q_y5))*32 + round(v(q_y4))*16 +  round(v(q_y3))*8 + round(v(q_y2))*4 + round(v(q_y1))*2 + round(v(q_y0))*1)=-1 at 1.9229e-009
z2: (round(v(z15))*(-32768) + round(v(z14))*16384 + round(v(z13))*8192 + round(v(z12))*4096 +  round(v(z11))*2048 + round(v(z10))*1024 + round(v(z9))*512 + round(v(z8))*256 +  round(v(z7))*128 + round(v(z6))*64 + round(v(z5))*32 + round(v(z4))*16 +  round(v(z3))*8 + round(v(z2))*4 + round(v(z1))*2 + round(v(z0))*1)=-511 at 2.4846e-009


Date: Tue Dec 07 12:02:27 2021
Total elapsed time: 43.044 seconds.

tnom = 27
temp = 27
method = modified trap
totiter = 3430
traniter = 3430
tranpoints = 1274
accept = 1225
rejected = 49
matrix size = 23486
fillins = 29232
solver = Normal
Thread vector: 6562.9/3374.0[8] 2211.4/476.6[8] 1203.0/573.8[8] 770.2/766.1[2]  2592/500
Matrix Compiler1: 5.66 MB object code size  7737.8/4384.9/[2196.6]
Matrix Compiler2: 3.05 MB object code size  2920.3/3127.5/[1275.7]

