Circuit: *** SPICE deck for cell multiplier-tb{sch} from library 8bit-CSM

V17: Removing PWL point (1.92e-009,0)
V16: Removing PWL point (1.92e-009,0)
V15: Removing PWL point (1.92e-009,0)
V14: Removing PWL point (1.92e-009,0)
V13: Removing PWL point (1.92e-009,0)
V12: Removing PWL point (1.92e-009,0)
V11: Removing PWL point (1.92e-009,0)
V9: Removing PWL point (1.92e-009,0)
V8: Removing PWL point (1.92e-009,0)
V7: Removing PWL point (1.92e-009,0)
V6: Removing PWL point (1.92e-009,0)
V5: Removing PWL point (1.92e-009,0)
V4: Removing PWL point (1.92e-009,0)
V3: Removing PWL point (1.92e-009,0)
Per .tran options, skipping operating point for transient analysis.

x: (round(v(q_x7))*(-128) + round(v(q_x6))*64 + round(v(q_x5))*32 + round(v(q_x4))*16 +  round(v(q_x3))*8 + round(v(q_x2))*4 + round(v(q_x1))*2 + round(v(q_x0))*1)=-128 at 3.01665e-009
y: (round(v(q_y7))*(-128) + round(v(q_y6))*64 + round(v(q_y5))*32 + round(v(q_y4))*16 +  round(v(q_y3))*8 + round(v(q_y2))*4 + round(v(q_y1))*2 + round(v(q_y0))*1)=-128 at 3.01665e-009
z: (round(v(z15))*(-32768) + round(v(z14))*16384 + round(v(z13))*8192 + round(v(z12))*4096 +  round(v(z11))*2048 + round(v(z10))*1024 + round(v(z9))*512 + round(v(z8))*256 +  round(v(z7))*128 + round(v(z6))*64 + round(v(z5))*32 + round(v(z4))*16 +  round(v(z3))*8 + round(v(z2))*4 + round(v(z1))*2 + round(v(z0))*1)=16384 at 3.92667e-009


Date: Thu Dec 09 19:00:08 2021
Total elapsed time: 66.428 seconds.

tnom = 27
temp = 27
method = modified trap
totiter = 2828
traniter = 2828
tranpoints = 1163
accept = 1141
rejected = 22
matrix size = 23934
fillins = 29396
solver = Normal
Thread vector: 6871.5/3573.0[8] 5722.3/1907.2[8] 2546.3/1205.3[8] 898.9/1075.3[1]  2592/500
Matrix Compiler1: 5.67 MB object code size  9390.0/4701.1/[2442.0]
Matrix Compiler2: 3.10 MB object code size  3996.2/3518.1/[1419.2]

