Circuit: *** SPICE deck for cell multiplier-tb{sch} from library 8bit-CSM

V13: Removing PWL point (1.236e-009,0)
V12: Removing PWL point (1.236e-009,0)
V11: Removing PWL point (1.236e-009,0)
V10: Removing PWL point (1.236e-009,0)
V7: Removing PWL point (1.236e-009,0)
V5: Removing PWL point (1.236e-009,0)
V4: Removing PWL point (1.236e-009,0)
V2: Removing PWL point (1.236e-009,0)
Per .tran options, skipping operating point for transient analysis.

x1: (round(v(q_x7))*(-128) + round(v(q_x6))*64 + round(v(q_x5))*32 + round(v(q_x4))*16 +  round(v(q_x3))*8 + round(v(q_x2))*4 + round(v(q_x1))*2 + round(v(q_x0))*1)=75 at 2.00897e-009
y1: (round(v(q_y7))*(-128) + round(v(q_y6))*64 + round(v(q_y5))*32 + round(v(q_y4))*16 +  round(v(q_y3))*8 + round(v(q_y2))*4 + round(v(q_y1))*2 + round(v(q_y0))*1)=15 at 2.00897e-009
z1: (round(v(z15))*(-32768) + round(v(z14))*16384 + round(v(z13))*8192 + round(v(z12))*4096 +  round(v(z11))*2048 + round(v(z10))*1024 + round(v(z9))*512 + round(v(z8))*256 +  round(v(z7))*128 + round(v(z6))*64 + round(v(z5))*32 + round(v(z4))*16 +  round(v(z3))*8 + round(v(z2))*4 + round(v(z1))*2 + round(v(z0))*1)=1125 at 2.57972e-009
x2: (round(v(q_x7))*(-128) + round(v(q_x6))*64 + round(v(q_x5))*32 + round(v(q_x4))*16 +  round(v(q_x3))*8 + round(v(q_x2))*4 + round(v(q_x1))*2 + round(v(q_x0))*1)=0 at 2.57972e-009
y2: (round(v(q_y7))*(-128) + round(v(q_y6))*64 + round(v(q_y5))*32 + round(v(q_y4))*16 +  round(v(q_y3))*8 + round(v(q_y2))*4 + round(v(q_y1))*2 + round(v(q_y0))*1)=0 at 2.57972e-009
z2: (round(v(z15))*(-32768) + round(v(z14))*16384 + round(v(z13))*8192 + round(v(z12))*4096 +  round(v(z11))*2048 + round(v(z10))*1024 + round(v(z9))*512 + round(v(z8))*256 +  round(v(z7))*128 + round(v(z6))*64 + round(v(z5))*32 + round(v(z4))*16 +  round(v(z3))*8 + round(v(z2))*4 + round(v(z1))*2 + round(v(z0))*1)=0 at 3.14754e-009


Date: Thu Dec 09 12:01:01 2021
Total elapsed time: 16.281 seconds.

tnom = 27
temp = 27
method = modified trap
totiter = 3155
traniter = 3155
tranpoints = 1214
accept = 1170
rejected = 44
matrix size = 10090
fillins = 5106
solver = Normal
Thread vector: 5788.9/1526.8[8] 1251.3/257.6[8] 781.2/447.7[8] 240.1/94.5[8]  2592/500
Matrix Compiler1: 2.73 MB object code size  2829.0/1377.8/[716.2]
Matrix Compiler2: 1.37 MB object code size  908.2/721.7/[369.0]

