Circuit: *** SPICE deck for cell multiplier-tb{sch} from library 8bit-CSM

V17: Removing PWL point (1.3e-009,0.8)
V15: Removing PWL point (1.3e-009,0.8)
V13: Removing PWL point (1.3e-009,0.8)
V12: Removing PWL point (1.3e-009,0.8)
V11: Removing PWL point (1.3e-009,0.8)
V10: Removing PWL point (1.3e-009,0.8)
V9: Removing PWL point (1.3e-009,0.8)
V7: Removing PWL point (1.3e-009,0.8)
V5: Removing PWL point (1.3e-009,0.8)
V4: Removing PWL point (1.3e-009,0.8)
V3: Removing PWL point (1.3e-009,0.8)
V2: Removing PWL point (1.3e-009,0.8)
Per .tran options, skipping operating point for transient analysis.

x1: (round(v(q_x7))*(-128) + round(v(q_x6))*64 + round(v(q_x5))*32 + round(v(q_x4))*16 +  round(v(q_x3))*8 + round(v(q_x2))*4 + round(v(q_x1))*2 + round(v(q_x0))*1)=-1 at 1.52025e-009
y1: (round(v(q_y7))*(-128) + round(v(q_y6))*64 + round(v(q_y5))*32 + round(v(q_y4))*16 +  round(v(q_y3))*8 + round(v(q_y2))*4 + round(v(q_y1))*2 + round(v(q_y0))*1)=-1 at 1.52025e-009
z1: (round(v(z15))*(-32768) + round(v(z14))*16384 + round(v(z13))*8192 + round(v(z12))*4096 +  round(v(z11))*2048 + round(v(z10))*1024 + round(v(z9))*512 + round(v(z8))*256 +  round(v(z7))*128 + round(v(z6))*64 + round(v(z5))*32 + round(v(z4))*16 +  round(v(z3))*8 + round(v(z2))*4 + round(v(z1))*2 + round(v(z0))*1)=1 at 2.1196e-009
x2: (round(v(q_x7))*(-128) + round(v(q_x6))*64 + round(v(q_x5))*32 + round(v(q_x4))*16 +  round(v(q_x3))*8 + round(v(q_x2))*4 + round(v(q_x1))*2 + round(v(q_x0))*1)=-11 at 2.1196e-009
y2: (round(v(q_y7))*(-128) + round(v(q_y6))*64 + round(v(q_y5))*32 + round(v(q_y4))*16 +  round(v(q_y3))*8 + round(v(q_y2))*4 + round(v(q_y1))*2 + round(v(q_y0))*1)=-11 at 2.1196e-009
z2: (round(v(z15))*(-32768) + round(v(z14))*16384 + round(v(z13))*8192 + round(v(z12))*4096 +  round(v(z11))*2048 + round(v(z10))*1024 + round(v(z9))*512 + round(v(z8))*256 +  round(v(z7))*128 + round(v(z6))*64 + round(v(z5))*32 + round(v(z4))*16 +  round(v(z3))*8 + round(v(z2))*4 + round(v(z1))*2 + round(v(z0))*1)=121 at 2.71955e-009


Date: Tue Nov 30 16:27:34 2021
Total elapsed time: 20.968 seconds.

tnom = 27
temp = 27
method = modified trap
totiter = 3231
traniter = 3231
tranpoints = 1218
accept = 1186
rejected = 32
matrix size = 11494
fillins = 5136
solver = Normal
Thread vector: 6286.0/2285.7[8] 1492.8/450.8[8] 931.2/568.9[8] 342.5/213.0[8]  2592/500
Matrix Compiler1: 2.93 MB object code size  3555.3/1881.8/[1015.4]
Matrix Compiler2: 1.55 MB object code size  1386.5/1090.1/[491.5]

