Circuit: *** SPICE deck for cell multiplier-tb-delay{sch} from library 8bit-CSM

V17: Removing PWL point (1e-009,0.8)
V16: Removing PWL point (1e-009,0.8)
V15: Removing PWL point (1e-009,0.8)
V14: Removing PWL point (1e-009,0.8)
V13: Removing PWL point (1e-009,0.8)
V12: Removing PWL point (1e-009,0.8)
V11: Removing PWL point (1e-009,0.8)
V10: Removing PWL point (1e-009,0.8)
V9: Removing PWL point (1e-009,0.8)
Per .tran options, skipping operating point for transient analysis.

multiplier-delay=4.11975e-010 FROM 1.05e-009 TO 1.46197e-009


Date: Sun Dec 05 22:21:00 2021
Total elapsed time: 10.299 seconds.

tnom = 27
temp = 27
method = modified trap
totiter = 2910
traniter = 2910
tranpoints = 1050
accept = 1050
rejected = 0
matrix size = 8503
fillins = 1856
solver = Normal
Thread vector: 7163.2/2453.5[8] 1321.0/188.9[8] 675.7/331.7[8] 291.5/122.9[7]  2592/500
Matrix Compiler1: 1.61 MB object code size  1819.2/1176.1/[784.5]
Matrix Compiler2: 1.12 MB object code size  669.2/1036.5/[446.1]

