Circuit: *** SPICE deck for cell multiplier-tb-delay{sch} from library 8bit-CSM

V17: Removing PWL point (1e-009,0.8)
V16: Removing PWL point (1e-009,0.8)
V15: Removing PWL point (1e-009,0.8)
V14: Removing PWL point (1e-009,0.8)
V13: Removing PWL point (1e-009,0.8)
V12: Removing PWL point (1e-009,0.8)
V11: Removing PWL point (1e-009,0.8)
V10: Removing PWL point (1e-009,0.8)
V9: Removing PWL point (1e-009,0.8)
Per .tran options, skipping operating point for transient analysis.

multiplier-delay=6.23958e-010 FROM 1.10825e-009 TO 1.73221e-009


Date: Thu Dec 09 12:24:27 2021
Total elapsed time: 39.482 seconds.

tnom = 27
temp = 27
method = modified trap
totiter = 2844
traniter = 2844
tranpoints = 1054
accept = 1053
rejected = 1
matrix size = 22590
fillins = 27536
solver = Normal
Thread vector: 8665.2/3066.0[8] 2100.2/497.2[8] 1141.1/582.0[8] 787.9/514.0[7]  2592/500
Matrix Compiler1: 4.86 MB object code size  6797.7/3872.2/[2066.8]
Matrix Compiler2: 2.89 MB object code size  2473.6/2849.2/[1347.8]

