Circuit: *** SPICE deck for cell multiplier-tb-delay{sch} from library 8bit-CSM

V17: Removing PWL point (1e-009,0.8)
V16: Removing PWL point (1e-009,0.8)
V15: Removing PWL point (1e-009,0.8)
V14: Removing PWL point (1e-009,0.8)
V13: Removing PWL point (1e-009,0.8)
V12: Removing PWL point (1e-009,0.8)
V11: Removing PWL point (1e-009,0.8)
V10: Removing PWL point (1e-009,0.8)
V9: Removing PWL point (1e-009,0.8)
Per .tran options, skipping operating point for transient analysis.

multiplier-delay=4.03746e-010 FROM 1.07481e-009 TO 1.47856e-009


Date: Thu Dec 09 12:18:46 2021
Total elapsed time: 12.054 seconds.

tnom = 27
temp = 27
method = modified trap
totiter = 2941
traniter = 2941
tranpoints = 1050
accept = 1050
rejected = 0
matrix size = 8791
fillins = 4294
solver = Normal
Thread vector: 6952.9/1259.7[8] 1169.0/235.6[8] 702.7/370.6[8] 285.8/73.7[8]  2592/500
Matrix Compiler1: 2.32 MB object code size  2114.1/1115.3/[847.3]
Matrix Compiler2: 1.19 MB object code size  673.4/574.0/[442.9]

