Circuit: *** SPICE deck for cell multiplier-pipelined-tb{sch} from library 8bit-CSM

V17: Removing PWL point (6.8e-010,0.8)
V15: Removing PWL point (6.8e-010,0.8)
V13: Removing PWL point (6.8e-010,0.8)
V12: Removing PWL point (6.8e-010,0.8)
V11: Removing PWL point (6.8e-010,0.8)
V10: Removing PWL point (6.8e-010,0.8)
V9: Removing PWL point (6.8e-010,0.8)
V7: Removing PWL point (6.8e-010,0.8)
V5: Removing PWL point (6.8e-010,0.8)
V4: Removing PWL point (6.8e-010,0.8)
V3: Removing PWL point (6.8e-010,0.8)
V2: Removing PWL point (6.8e-010,0.8)
Per .tran options, skipping operating point for transient analysis.

x1: (round(v(q_x7))*(-128) + round(v(q_x6))*64 + round(v(q_x5))*32 + round(v(q_x4))*16 +  round(v(q_x3))*8 + round(v(q_x2))*4 + round(v(q_x1))*2 + round(v(q_x0))*1)=-1 at 8.90391e-010
y1: (round(v(q_y7))*(-128) + round(v(q_y6))*64 + round(v(q_y5))*32 + round(v(q_y4))*16 +  round(v(q_y3))*8 + round(v(q_y2))*4 + round(v(q_y1))*2 + round(v(q_y0))*1)=-1 at 8.90391e-010
z1: (round(v(z15))*(-32768) + round(v(z14))*16384 + round(v(z13))*8192 + round(v(z12))*4096 +  round(v(z11))*2048 + round(v(z10))*1024 + round(v(z9))*512 + round(v(z8))*256 +  round(v(z7))*128 + round(v(z6))*64 + round(v(z5))*32 + round(v(z4))*16 +  round(v(z3))*8 + round(v(z2))*4 + round(v(z1))*2 + round(v(z0))*1)=1 at 1.48036e-009
x2: (round(v(q_x7))*(-128) + round(v(q_x6))*64 + round(v(q_x5))*32 + round(v(q_x4))*16 +  round(v(q_x3))*8 + round(v(q_x2))*4 + round(v(q_x1))*2 + round(v(q_x0))*1)=-11 at 1.19262e-009
y2: (round(v(q_y7))*(-128) + round(v(q_y6))*64 + round(v(q_y5))*32 + round(v(q_y4))*16 +  round(v(q_y3))*8 + round(v(q_y2))*4 + round(v(q_y1))*2 + round(v(q_y0))*1)=-11 at 1.19262e-009
z2: (round(v(z15))*(-32768) + round(v(z14))*16384 + round(v(z13))*8192 + round(v(z12))*4096 +  round(v(z11))*2048 + round(v(z10))*1024 + round(v(z9))*512 + round(v(z8))*256 +  round(v(z7))*128 + round(v(z6))*64 + round(v(z5))*32 + round(v(z4))*16 +  round(v(z3))*8 + round(v(z2))*4 + round(v(z1))*2 + round(v(z0))*1)=121 at 1.77023e-009


Date: Mon Nov 29 18:40:26 2021
Total elapsed time: 27.146 seconds.

tnom = 27
temp = 27
method = modified trap
totiter = 3339
traniter = 3339
tranpoints = 1227
accept = 1181
rejected = 46
matrix size = 14952
fillins = 6750
solver = Normal
Thread vector: 6294.7/3049.7[8] 1941.1/396.9[8] 1191.9/616.4[8] 422.1/344.9[4]  2592/500
Matrix Compiler1: 3.83 MB object code size  4640.8/2527.1/[1287.8]
Matrix Compiler2: 2.02 MB object code size  1683.7/1745.9/[718.1]

