Circuit: *** SPICE deck for cell multiplier-crit-path{sch} from library 8bit-CSM

Direct Newton iteration for .op point skipped.
Starting Gmin stepping
Gmin = 10
Gmin = 1.07374
Gmin = 0.115292
Gmin = 0.0123794
Gmin = 0.00132923
Gmin = 0.000142725
Gmin = 1.5325e-005
Gmin = 1.6455e-006
Gmin = 1.76685e-007
Gmin = 1.89714e-008
Gmin = 2.03704e-009
Gmin = 2.18725e-010
Gmin = 2.34854e-011
Gmin = 2.52173e-012
Gmin = 2.70769e-013
Gmin = 0
Gmin stepping succeeded in finding the operating point.

.step wc=1 ws=1
.step wc=2 ws=1
.step wc=3 ws=1
.step wc=1 ws=2
.step wc=2 ws=2
.step wc=3 ws=2
.step wc=1 ws=3
.step wc=2 ws=3
.step wc=3 ws=3


Measurement: crit-path-delay
  step	crit-path-delay	FROM	TO
     1	5.07811e-010	1.05e-009	1.55781e-009
     2	4.42497e-010	1.05e-009	1.4925e-009
     3	4.36617e-010	1.05e-009	1.48662e-009
     4	5.1376e-010	1.05e-009	1.56376e-009
     5	3.99614e-010	1.05e-009	1.44961e-009
     6	3.70894e-010	1.05e-009	1.42089e-009
     7	5.69689e-010	1.05e-009	1.61969e-009
     8	4.12655e-010	1.05e-009	1.46265e-009
     9	3.67502e-010	1.05e-009	1.4175e-009


Date: Mon Nov 01 11:33:05 2021
Total elapsed time: 682.873 seconds.

tnom = 27
temp = 27
method = modified trap
totiter = 2703
traniter = 2263
tranpoints = 1048
accept = 1048
rejected = 0
matrix size = 1678
fillins = 72
solver = Normal
Thread vector: 1087.5/689.5[8] 377.1/81.9[8] 214.2/98.7[8] 34.2/25.3[4]  2592/500
Matrix Compiler1: 246.55 KB object code size  406.4/204.4/[97.4]
Matrix Compiler2: 206.89 KB object code size  254.8/230.1/[60.8]

