Circuit: *** SPICE deck for cell multiplier-crit-path{sch} from library 8bit-CSM

V2: Removing PWL point (2e-009,0.8)
WARNING: Node FULL_ADD@79_A is floating.
WARNING: Node FULL_ADD@79_B is floating.
WARNING: Node FULL_ADD@86_A is floating.
WARNING: Node FULL_ADD@86_B is floating.
WARNING: Node FULL_ADD@93_A is floating.
WARNING: Node NET@712 is floating.
WARNING: Node FULL_ADD@93_B is floating.
WARNING: Node FULL_ADD@100_A is floating.
WARNING: Node FULL_ADD@100_B is floating.
WARNING: Node FULL_ADD@107_A is floating.
WARNING: Node FULL_ADD@107_B is floating.
WARNING: Node FULL_ADD@128_A is floating.
WARNING: Node FULL_ADD@128_B is floating.
WARNING: Node NET@1557 is floating.

Per .tran options, skipping operating point for transient analysis.
.step wc=1 ws=1 wg=1
.step wc=2 ws=1 wg=1
.step wc=3 ws=1 wg=1
.step wc=1 ws=2 wg=1
.step wc=2 ws=2 wg=1
.step wc=3 ws=2 wg=1
.step wc=1 ws=3 wg=1
.step wc=2 ws=3 wg=1
.step wc=3 ws=3 wg=1
.step wc=1 ws=1 wg=2
.step wc=2 ws=1 wg=2
.step wc=3 ws=1 wg=2
.step wc=1 ws=2 wg=2
.step wc=2 ws=2 wg=2
.step wc=3 ws=2 wg=2
.step wc=1 ws=3 wg=2
.step wc=2 ws=3 wg=2
.step wc=3 ws=3 wg=2
.step wc=1 ws=1 wg=4
.step wc=2 ws=1 wg=4
.step wc=3 ws=1 wg=4
.step wc=1 ws=2 wg=4
.step wc=2 ws=2 wg=4
.step wc=3 ws=2 wg=4
.step wc=1 ws=3 wg=4
.step wc=2 ws=3 wg=4
.step wc=3 ws=3 wg=4


Measurement: crit-path-delay-rise
  step	crit-path-delay-rise	FROM	TO
     1	5.15424e-010	1.05e-009	1.56542e-009
     2	4.22755e-010	1.05e-009	1.47275e-009
     3	4.09509e-010	1.05e-009	1.45951e-009
     4	5.58124e-010	1.05e-009	1.60812e-009
     5	4.14077e-010	1.05e-009	1.46408e-009
     6	3.76582e-010	1.05e-009	1.42658e-009
     7	6.3409e-010	1.05e-009	1.68409e-009
     8	4.4389e-010	1.05e-009	1.49389e-009
     9	3.8689e-010	1.05e-009	1.43689e-009
    10	5.11533e-010	1.05e-009	1.56153e-009
    11	4.16397e-010	1.05e-009	1.4664e-009
    12	4.0144e-010	1.05e-009	1.45144e-009
    13	5.51436e-010	1.05e-009	1.60144e-009
    14	4.05281e-010	1.05e-009	1.45528e-009
    15	3.66055e-010	1.05e-009	1.41606e-009
    16	6.25259e-010	1.05e-009	1.67526e-009
    17	4.32975e-010	1.05e-009	1.48297e-009
    18	3.74785e-010	1.05e-009	1.42479e-009
    19	5.14574e-010	1.05e-009	1.56457e-009
    20	4.16427e-010	1.05e-009	1.46643e-009
    21	3.99865e-010	1.05e-009	1.44987e-009
    22	5.51506e-010	1.05e-009	1.60151e-009
    23	4.02542e-010	1.05e-009	1.45254e-009
    24	3.61916e-010	1.05e-009	1.41192e-009
    25	6.23737e-010	1.05e-009	1.67374e-009
    26	4.28782e-010	1.05e-009	1.47878e-009
    27	3.69428e-010	1.05e-009	1.41943e-009

Measurement: crit-path-delay-fall
  step	crit-path-delay-fall	FROM	TO
     1	5.46797e-010	3.05e-009	3.5968e-009
     2	4.22243e-010	3.05e-009	3.47224e-009
     3	3.97903e-010	3.05e-009	3.4479e-009
     4	6.18536e-010	3.05e-009	3.66854e-009
     5	4.37009e-010	3.05e-009	3.48701e-009
     6	3.86373e-010	3.05e-009	3.43637e-009
     7	7.10657e-010	3.05e-009	3.76066e-009
     8	4.7608e-010	3.05e-009	3.52608e-009
     9	4.05815e-010	3.05e-009	3.45581e-009
    10	5.43804e-010	3.05e-009	3.5938e-009
    11	4.16702e-010	3.05e-009	3.4667e-009
    12	3.90615e-010	3.05e-009	3.44061e-009
    13	6.12551e-010	3.05e-009	3.66255e-009
    14	4.28969e-010	3.05e-009	3.47897e-009
    15	3.77038e-010	3.05e-009	3.42704e-009
    16	7.02686e-010	3.05e-009	3.75269e-009
    17	4.66381e-010	3.05e-009	3.51638e-009
    18	3.94778e-010	3.05e-009	3.44478e-009
    19	5.47934e-010	3.05e-009	3.59793e-009
    20	4.17434e-010	3.05e-009	3.46743e-009
    21	3.89702e-010	3.05e-009	3.4397e-009
    22	6.13315e-010	3.05e-009	3.66331e-009
    23	4.26835e-010	3.05e-009	3.47684e-009
    24	3.73437e-010	3.05e-009	3.42344e-009
    25	7.01751e-010	3.05e-009	3.75175e-009
    26	4.62725e-010	3.05e-009	3.51272e-009
    27	3.89855e-010	3.05e-009	3.43986e-009


Date: Fri Nov 12 13:37:20 2021
Total elapsed time: 143.853 seconds.

tnom = 27
temp = 27
method = modified trap
totiter = 2673
traniter = 2673
tranpoints = 1056
accept = 1056
rejected = 0
matrix size = 3942
fillins = 332
solver = Normal
Thread vector: 6194.5/1442.6[8] 742.9/211.9[8] 409.8/168.0[8] 164.5/88.8[8]  2592/500
Matrix Compiler1: 656.91 KB object code size  871.4/566.4/[396.7]
Matrix Compiler2: 501.14 KB object code size  420.7/512.8/[257.4]

