Circuit: *** SPICE deck for cell multiplier-crit-path{sch} from library 8bit-CSM

V2: Removing PWL point (2e-009,0.8)
WARNING: Node FULL_ADD@79_A is floating.
WARNING: Node FULL_ADD@79_B is floating.
WARNING: Node FULL_ADD@86_A is floating.
WARNING: Node FULL_ADD@86_B is floating.
WARNING: Node FULL_ADD@93_A is floating.
WARNING: Node NET@712 is floating.
WARNING: Node FULL_ADD@93_B is floating.
WARNING: Node FULL_ADD@100_A is floating.
WARNING: Node FULL_ADD@100_B is floating.
WARNING: Node FULL_ADD@107_A is floating.
WARNING: Node FULL_ADD@107_B is floating.
WARNING: Node FULL_ADD@128_A is floating.
WARNING: Node FULL_ADD@128_B is floating.
WARNING: Node NET@1557 is floating.

Per .tran options, skipping operating point for transient analysis.
.step wc=1 ws=1 wg=1
.step wc=2 ws=1 wg=1
.step wc=3 ws=1 wg=1
.step wc=1 ws=2 wg=1
.step wc=2 ws=2 wg=1
.step wc=3 ws=2 wg=1
.step wc=1 ws=3 wg=1
.step wc=2 ws=3 wg=1
.step wc=3 ws=3 wg=1
.step wc=1 ws=1 wg=2
.step wc=2 ws=1 wg=2
.step wc=3 ws=1 wg=2
.step wc=1 ws=2 wg=2
.step wc=2 ws=2 wg=2
.step wc=3 ws=2 wg=2
.step wc=1 ws=3 wg=2
.step wc=2 ws=3 wg=2
.step wc=3 ws=3 wg=2
.step wc=1 ws=1 wg=4
.step wc=2 ws=1 wg=4
.step wc=3 ws=1 wg=4
.step wc=1 ws=2 wg=4
.step wc=2 ws=2 wg=4
.step wc=3 ws=2 wg=4
.step wc=1 ws=3 wg=4
.step wc=2 ws=3 wg=4
.step wc=3 ws=3 wg=4


Measurement: crit-path-delay-rise
  step	crit-path-delay-rise	FROM	TO
     1	4.26363e-010	1.05e-009	1.47636e-009
     2	3.68089e-010	1.05e-009	1.41809e-009
     3	3.65984e-010	1.05e-009	1.41598e-009
     4	5.11801e-010	1.05e-009	1.5618e-009
     5	4.14073e-010	1.05e-009	1.46407e-009
     6	3.96286e-010	1.05e-009	1.44629e-009
     7	6.11664e-010	1.05e-009	1.66166e-009
     8	4.76509e-010	1.05e-009	1.52651e-009
     9	4.45317e-010	1.05e-009	1.49532e-009
    10	4.20047e-010	1.05e-009	1.47005e-009
    11	3.60388e-010	1.05e-009	1.41039e-009
    12	3.57206e-010	1.05e-009	1.40721e-009
    13	5.03361e-010	1.05e-009	1.55336e-009
    14	4.04097e-010	1.05e-009	1.4541e-009
    15	3.84725e-010	1.05e-009	1.43473e-009
    16	6.01278e-010	1.05e-009	1.65128e-009
    17	4.64698e-010	1.05e-009	1.5147e-009
    18	4.32296e-010	1.05e-009	1.4823e-009
    19	4.18829e-010	1.05e-009	1.46883e-009
    20	3.58187e-010	1.05e-009	1.40819e-009
    21	3.54076e-010	1.05e-009	1.40408e-009
    22	4.99701e-010	1.05e-009	1.5497e-009
    23	3.99292e-010	1.05e-009	1.44929e-009
    24	3.79067e-010	1.05e-009	1.42907e-009
    25	5.96285e-010	1.05e-009	1.64629e-009
    26	4.58761e-010	1.05e-009	1.50876e-009
    27	4.25383e-010	1.05e-009	1.47538e-009

Measurement: crit-path-delay-fall
  step	crit-path-delay-fall	FROM	TO
     1	3.8224e-010	3.05e-009	3.43224e-009
     2	3.41553e-010	3.05e-009	3.39155e-009
     3	3.43993e-010	3.05e-009	3.39399e-009
     4	4.40984e-010	3.05e-009	3.49098e-009
     5	3.6545e-010	3.05e-009	3.41545e-009
     6	3.52578e-010	3.05e-009	3.40258e-009
     7	5.17869e-010	3.05e-009	3.56787e-009
     8	4.10922e-010	3.05e-009	3.46092e-009
     9	3.86397e-010	3.05e-009	3.4364e-009
    10	3.75904e-010	3.05e-009	3.4259e-009
    11	3.33953e-010	3.05e-009	3.38395e-009
    12	3.35206e-010	3.05e-009	3.38521e-009
    13	4.32656e-010	3.05e-009	3.48266e-009
    14	3.5585e-010	3.05e-009	3.40585e-009
    15	3.42134e-010	3.05e-009	3.39213e-009
    16	5.08112e-010	3.05e-009	3.55811e-009
    17	4.00201e-010	3.05e-009	3.4502e-009
    18	3.74672e-010	3.05e-009	3.42467e-009
    19	3.74257e-010	3.05e-009	3.42426e-009
    20	3.31494e-010	3.05e-009	3.38149e-009
    21	3.3204e-010	3.05e-009	3.38204e-009
    22	4.28672e-010	3.05e-009	3.47867e-009
    23	3.51131e-010	3.05e-009	3.40113e-009
    24	3.36679e-010	3.05e-009	3.38668e-009
    25	5.02948e-010	3.05e-009	3.55295e-009
    26	3.94104e-010	3.05e-009	3.4441e-009
    27	3.68248e-010	3.05e-009	3.41825e-009


Date: Wed Nov 10 11:36:25 2021
Total elapsed time: 151.391 seconds.

tnom = 27
temp = 27
method = modified trap
totiter = 2647
traniter = 2647
tranpoints = 1056
accept = 1056
rejected = 0
matrix size = 3942
fillins = 332
solver = Normal
Thread vector: 2947.6/857.7[8] 796.8/145.9[8] 342.4/108.3[8] 77.3/40.7[8]  2592/500
Matrix Compiler1: 656.83 KB object code size  1134.3/565.7/[156.5]
Matrix Compiler2: 500.97 KB object code size  556.5/451.6/[127.5]

