Circuit: *** SPICE deck for cell multiplier-crit-path{sch} from library 8bit-CSM

WARNING: Node FULL_ADD@79_A is floating.
WARNING: Node FULL_ADD@79_B is floating.
WARNING: Node FULL_ADD@86_A is floating.
WARNING: Node FULL_ADD@86_B is floating.
WARNING: Node FULL_ADD@93_A is floating.
WARNING: Node FULL_ADD@93_B is floating.
WARNING: Node FULL_ADD@100_A is floating.
WARNING: Node FULL_ADD@100_B is floating.
WARNING: Node FULL_ADD@107_A is floating.
WARNING: Node FULL_ADD@107_B is floating.
WARNING: Node FULL_ADD@128_A is floating.
WARNING: Node FULL_ADD@128_B is floating.

Per .tran options, skipping operating point for transient analysis.
.step wc=1 ws=1 wg=1
.step wc=2 ws=1 wg=1
.step wc=3 ws=1 wg=1
.step wc=1 ws=2 wg=1
.step wc=2 ws=2 wg=1
.step wc=3 ws=2 wg=1
.step wc=1 ws=3 wg=1
.step wc=2 ws=3 wg=1
.step wc=3 ws=3 wg=1
.step wc=1 ws=1 wg=2
.step wc=2 ws=1 wg=2
.step wc=3 ws=1 wg=2
.step wc=1 ws=2 wg=2
.step wc=2 ws=2 wg=2
.step wc=3 ws=2 wg=2
.step wc=1 ws=3 wg=2
.step wc=2 ws=3 wg=2
.step wc=3 ws=3 wg=2
.step wc=1 ws=1 wg=4
.step wc=2 ws=1 wg=4
.step wc=3 ws=1 wg=4
.step wc=1 ws=2 wg=4
.step wc=2 ws=2 wg=4
.step wc=3 ws=2 wg=4
.step wc=1 ws=3 wg=4
.step wc=2 ws=3 wg=4
.step wc=3 ws=3 wg=4


Measurement: crit-path-delay
  step	crit-path-delay	FROM	TO
     1	5.54456e-010	1.05e-009	1.60446e-009
     2	4.72827e-010	1.05e-009	1.52283e-009
     3	4.63817e-010	1.05e-009	1.51382e-009
     4	5.97653e-010	1.05e-009	1.64765e-009
     5	4.65371e-010	1.05e-009	1.51537e-009
     6	4.32435e-010	1.05e-009	1.48243e-009
     7	6.81909e-010	1.05e-009	1.73191e-009
     8	5.03188e-010	1.05e-009	1.55319e-009
     9	4.52091e-010	1.05e-009	1.50209e-009
    10	5.50981e-010	1.05e-009	1.60098e-009
    11	4.6684e-010	1.05e-009	1.51684e-009
    12	4.56279e-010	1.05e-009	1.50628e-009
    13	5.91629e-010	1.05e-009	1.64163e-009
    14	4.57087e-010	1.05e-009	1.50709e-009
    15	4.22764e-010	1.05e-009	1.47276e-009
    16	6.74026e-010	1.05e-009	1.72403e-009
    17	4.93268e-010	1.05e-009	1.54327e-009
    18	4.40907e-010	1.05e-009	1.49091e-009
    19	5.54197e-010	1.05e-009	1.6042e-009
    20	4.66974e-010	1.05e-009	1.51697e-009
    21	4.54864e-010	1.05e-009	1.50486e-009
    22	5.92169e-010	1.05e-009	1.64217e-009
    23	4.54669e-010	1.05e-009	1.50467e-009
    24	4.18932e-010	1.05e-009	1.46893e-009
    25	6.73068e-010	1.05e-009	1.72307e-009
    26	4.89479e-010	1.05e-009	1.53948e-009
    27	4.3581e-010	1.05e-009	1.48581e-009


Date: Sun Nov 07 15:57:54 2021
Total elapsed time: 125.837 seconds.

tnom = 27
temp = 27
method = modified trap
totiter = 2848
traniter = 2848
tranpoints = 1050
accept = 1050
rejected = 0
matrix size = 3940
fillins = 324
solver = Normal
Thread vector: 1299.9/349.3[12] 399.5/120.7[12] 179.9/88.6[12] 35.3/27.4[5]  2592/500
Matrix Compiler1: 653.21 KB object code size  707.3/287.1/[68.4]
Matrix Compiler2: 499.90 KB object code size  342.9/233.1/[50.9]

