Circuit: *** SPICE deck for cell multiplier-crit-path{sch} from library 8bit-CSM

WARNING: Node FULL_ADD@79_A is floating.
WARNING: Node FULL_ADD@79_B is floating.
WARNING: Node FULL_ADD@86_A is floating.
WARNING: Node FULL_ADD@86_B is floating.
WARNING: Node FULL_ADD@93_A is floating.
WARNING: Node FULL_ADD@93_B is floating.
WARNING: Node FULL_ADD@100_A is floating.
WARNING: Node FULL_ADD@100_B is floating.
WARNING: Node FULL_ADD@107_A is floating.
WARNING: Node FULL_ADD@107_B is floating.
WARNING: Node FULL_ADD@128_A is floating.
WARNING: Node FULL_ADD@128_B is floating.

Per .tran options, skipping operating point for transient analysis.
.step wc=1 ws=1
.step wc=2 ws=1
.step wc=3 ws=1
.step wc=1 ws=2
.step wc=2 ws=2
.step wc=3 ws=2
.step wc=1 ws=3
.step wc=2 ws=3
.step wc=3 ws=3


Measurement: crit-path-delay
  step	crit-path-delay	FROM	TO
     1	5.54456e-010	1.05e-009	1.60446e-009
     2	4.72827e-010	1.05e-009	1.52283e-009
     3	4.63817e-010	1.05e-009	1.51382e-009
     4	5.97653e-010	1.05e-009	1.64765e-009
     5	4.65371e-010	1.05e-009	1.51537e-009
     6	4.32435e-010	1.05e-009	1.48243e-009
     7	6.81909e-010	1.05e-009	1.73191e-009
     8	5.03188e-010	1.05e-009	1.55319e-009
     9	4.52091e-010	1.05e-009	1.50209e-009


Date: Mon Nov 01 18:03:10 2021
Total elapsed time: 36.031 seconds.

tnom = 27
temp = 27
method = modified trap
totiter = 2849
traniter = 2849
tranpoints = 1050
accept = 1050
rejected = 0
matrix size = 3940
fillins = 324
solver = Normal
Thread vector: 1635.0/610.1[8] 442.1/88.0[8] 226.6/88.5[8] 43.1/20.9[7]  2592/500
Matrix Compiler1: 653.21 KB object code size  682.2/306.0/[87.9]
Matrix Compiler2: 499.90 KB object code size  321.0/255.0/[58.3]

