Circuit: *** SPICE deck for cell multiplier-crit-path{sch} from library 8bit-CSM

V2: Removing PWL point (2e-009,0.8)
WARNING: Node FULL_ADD@79_A is floating.
WARNING: Node FULL_ADD@79_B is floating.
WARNING: Node FULL_ADD@86_A is floating.
WARNING: Node FULL_ADD@86_B is floating.
WARNING: Node FULL_ADD@93_A is floating.
WARNING: Node NET@712 is floating.
WARNING: Node FULL_ADD@93_B is floating.
WARNING: Node FULL_ADD@100_A is floating.
WARNING: Node FULL_ADD@100_B is floating.
WARNING: Node FULL_ADD@107_A is floating.
WARNING: Node FULL_ADD@107_B is floating.
WARNING: Node FULL_ADD@128_A is floating.
WARNING: Node FULL_ADD@128_B is floating.

Per .tran options, skipping operating point for transient analysis.
.step wc=1 ws=1 wg=1
.step wc=2 ws=1 wg=1
.step wc=3 ws=1 wg=1
.step wc=1 ws=2 wg=1
.step wc=2 ws=2 wg=1
.step wc=3 ws=2 wg=1
.step wc=1 ws=3 wg=1
.step wc=2 ws=3 wg=1
.step wc=3 ws=3 wg=1
.step wc=1 ws=1 wg=2
.step wc=2 ws=1 wg=2
.step wc=3 ws=1 wg=2
.step wc=1 ws=2 wg=2
.step wc=2 ws=2 wg=2
.step wc=3 ws=2 wg=2
.step wc=1 ws=3 wg=2
.step wc=2 ws=3 wg=2
.step wc=3 ws=3 wg=2
.step wc=1 ws=1 wg=4
.step wc=2 ws=1 wg=4
.step wc=3 ws=1 wg=4
.step wc=1 ws=2 wg=4
.step wc=2 ws=2 wg=4
.step wc=3 ws=2 wg=4
.step wc=1 ws=3 wg=4
.step wc=2 ws=3 wg=4
.step wc=3 ws=3 wg=4


Measurement: crit-path-delay-rise
  step	crit-path-delay-rise	FROM	TO
     1	3.92919e-010	1.05e-009	1.44292e-009
     2	3.53628e-010	1.05e-009	1.40363e-009
     3	3.57188e-010	1.05e-009	1.40719e-009
     4	4.04496e-010	1.05e-009	1.4545e-009
     5	3.24318e-010	1.05e-009	1.37432e-009
     6	3.07319e-010	1.05e-009	1.35732e-009
     7	4.49983e-010	1.05e-009	1.49998e-009
     8	3.36639e-010	1.05e-009	1.38664e-009
     9	3.06443e-010	1.05e-009	1.35644e-009
    10	3.87193e-010	1.05e-009	1.43719e-009
    11	3.46521e-010	1.05e-009	1.39652e-009
    12	3.48823e-010	1.05e-009	1.39882e-009
    13	3.96232e-010	1.05e-009	1.44623e-009
    14	3.14911e-010	1.05e-009	1.36491e-009
    15	2.9667e-010	1.05e-009	1.34667e-009
    16	4.39822e-010	1.05e-009	1.48982e-009
    17	3.25394e-010	1.05e-009	1.37539e-009
    18	2.94051e-010	1.05e-009	1.34405e-009
    19	3.86175e-010	1.05e-009	1.43618e-009
    20	3.44517e-010	1.05e-009	1.39452e-009
    21	3.46e-010	1.05e-009	1.396e-009
    22	3.92595e-010	1.05e-009	1.4426e-009
    23	3.10377e-010	1.05e-009	1.36038e-009
    24	2.91524e-010	1.05e-009	1.34152e-009
    25	4.34659e-010	1.05e-009	1.48466e-009
    26	3.19455e-010	1.05e-009	1.36945e-009
    27	2.87494e-010	1.05e-009	1.33749e-009

Measurement: crit-path-delay-fall
  step	crit-path-delay-fall	FROM	TO
     1	3.96656e-010	3.05e-009	3.44666e-009
     2	3.53742e-010	3.05e-009	3.40374e-009
     3	3.54671e-010	3.05e-009	3.40467e-009
     4	5.39472e-010	3.05e-009	3.58947e-009
     5	4.66948e-010	3.05e-009	3.51695e-009
     6	4.58054e-010	3.05e-009	3.50805e-009
     7	6.84695e-010	3.05e-009	3.73469e-009
     8	5.82175e-010	3.05e-009	3.63217e-009
     9	5.63704e-010	3.05e-009	3.6137e-009
    10	3.90478e-010	3.05e-009	3.44048e-009
    11	3.46585e-010	3.05e-009	3.39658e-009
    12	3.46541e-010	3.05e-009	3.39654e-009
    13	5.30929e-010	3.05e-009	3.58093e-009
    14	4.57293e-010	3.05e-009	3.50729e-009
    15	4.47685e-010	3.05e-009	3.49768e-009
    16	6.74309e-010	3.05e-009	3.72431e-009
    17	5.7087e-010	3.05e-009	3.62087e-009
    18	5.51366e-010	3.05e-009	3.60137e-009
    19	3.89029e-010	3.05e-009	3.43903e-009
    20	3.44462e-010	3.05e-009	3.39446e-009
    21	3.43833e-010	3.05e-009	3.39383e-009
    22	5.27027e-010	3.05e-009	3.57703e-009
    23	4.52791e-010	3.05e-009	3.50279e-009
    24	4.42608e-010	3.05e-009	3.49261e-009
    25	6.69138e-010	3.05e-009	3.71914e-009
    26	5.65047e-010	3.05e-009	3.61505e-009
    27	5.45098e-010	3.05e-009	3.5951e-009


Date: Wed Nov 10 11:15:52 2021
Total elapsed time: 179.757 seconds.

tnom = 27
temp = 27
method = modified trap
totiter = 2642
traniter = 2642
tranpoints = 1056
accept = 1056
rejected = 0
matrix size = 3941
fillins = 330
solver = Normal
Thread vector: 3449.1/1272.4[8] 655.8/296.3[8] 355.6/235.8[8] 102.8/63.0[6]  2592/500
Matrix Compiler1: 652.70 KB object code size  997.0/427.8/[217.7]
Matrix Compiler2: 498.18 KB object code size  479.4/337.6/[140.0]

