Circuit: *** SPICE deck for cell multiplier-crit-path{sch} from library 8bit-CSM

WARNING: Node FULL_ADD@79_A is floating.
WARNING: Node FULL_ADD@79_B is floating.
WARNING: Node FULL_ADD@86_A is floating.
WARNING: Node FULL_ADD@86_B is floating.
WARNING: Node FULL_ADD@93_A is floating.
WARNING: Node FULL_ADD@93_B is floating.
WARNING: Node FULL_ADD@100_A is floating.
WARNING: Node FULL_ADD@100_B is floating.
WARNING: Node FULL_ADD@107_A is floating.
WARNING: Node FULL_ADD@107_B is floating.
WARNING: Node FULL_ADD@128_A is floating.
WARNING: Node FULL_ADD@128_B is floating.

Per .tran options, skipping operating point for transient analysis.
.step wc=1 ws=1 wg=1
.step wc=2 ws=1 wg=1
.step wc=3 ws=1 wg=1
.step wc=1 ws=2 wg=1
.step wc=2 ws=2 wg=1
.step wc=3 ws=2 wg=1
.step wc=1 ws=3 wg=1
.step wc=2 ws=3 wg=1
.step wc=3 ws=3 wg=1
.step wc=1 ws=1 wg=2
.step wc=2 ws=1 wg=2
.step wc=3 ws=1 wg=2
.step wc=1 ws=2 wg=2
.step wc=2 ws=2 wg=2
.step wc=3 ws=2 wg=2
.step wc=1 ws=3 wg=2
.step wc=2 ws=3 wg=2
.step wc=3 ws=3 wg=2
.step wc=1 ws=1 wg=4
.step wc=2 ws=1 wg=4
.step wc=3 ws=1 wg=4
.step wc=1 ws=2 wg=4
.step wc=2 ws=2 wg=4
.step wc=3 ws=2 wg=4
.step wc=1 ws=3 wg=4
.step wc=2 ws=3 wg=4
.step wc=3 ws=3 wg=4


Measurement: crit-path-delay
  step	crit-path-delay	FROM	TO
     1	5.78576e-010	1.05e-009	1.62858e-009
     2	6.26721e-010	1.05e-009	1.67672e-009
     3	7.15618e-010	1.05e-009	1.76562e-009
     4	6.11404e-010	1.05e-009	1.6614e-009
     5	6.13422e-010	1.05e-009	1.66342e-009
     6	6.7576e-010	1.05e-009	1.72576e-009
     7	6.85582e-010	1.05e-009	1.73558e-009
     8	6.52644e-010	1.05e-009	1.70264e-009
     9	6.99088e-010	1.05e-009	1.74909e-009
    10	5.75802e-010	1.05e-009	1.6258e-009
    11	6.21388e-010	1.05e-009	1.67139e-009
    12	7.08763e-010	1.05e-009	1.75876e-009
    13	6.05756e-010	1.05e-009	1.65576e-009
    14	6.06162e-010	1.05e-009	1.65616e-009
    15	6.672e-010	1.05e-009	1.7172e-009
    16	6.78144e-010	1.05e-009	1.72814e-009
    17	6.4385e-010	1.05e-009	1.69385e-009
    18	6.89117e-010	1.05e-009	1.73912e-009
    19	5.80006e-010	1.05e-009	1.63001e-009
    20	6.24001e-010	1.05e-009	1.674e-009
    21	7.10204e-010	1.05e-009	1.7602e-009
    22	6.06809e-010	1.05e-009	1.65681e-009
    23	6.05954e-010	1.05e-009	1.65595e-009
    24	6.66066e-010	1.05e-009	1.71607e-009
    25	6.7764e-010	1.05e-009	1.72764e-009
    26	6.42181e-010	1.05e-009	1.69218e-009
    27	6.86608e-010	1.05e-009	1.73661e-009


Date: Sun Nov 07 21:50:49 2021
Total elapsed time: 144.665 seconds.

tnom = 27
temp = 27
method = modified trap
totiter = 2777
traniter = 2777
tranpoints = 1050
accept = 1050
rejected = 0
matrix size = 3940
fillins = 324
solver = Normal
Thread vector: 2983.8/814.8[8] 773.6/132.9[8] 333.4/100.8[8] 78.2/38.2[8]  2592/500
Matrix Compiler1: 653.51 KB object code size  1216.9/565.3/[151.5]
Matrix Compiler2: 500.46 KB object code size  598.9/480.3/[111.1]

